<?xml version="1.0" encoding="UTF-8"?>

<!-- generated on 2023-05-14 17:44:35 by Eclipse SUMO netedit Version 1.12.0
<configuration xmlns:xsi="http://www.w3.org/2001/XMLSchema-instance" xsi:noNamespaceSchemaLocation="http://sumo.dlr.de/xsd/netconvertConfiguration.xsd">

    <input>
        <sumo-net-file value="/home/lucas/Projects/sumo_structure/sumo_files/net.net.xml"/>
    </input>

    <output>
        <output-file value="/home/lucas/Projects/sumo_structure/sumo_files/net.net.xml"/>
    </output>

    <processing>
        <geometry.min-radius.fix.railways value="false"/>
        <geometry.max-grade.fix value="false"/>
        <offset.disable-normalization value="true"/>
        <lefthand value="false"/>
    </processing>

    <junctions>
        <no-turnarounds value="true"/>
        <junctions.corner-detail value="5"/>
        <junctions.limit-turn-speed value="5.5"/>
        <rectangular-lane-cut value="false"/>
    </junctions>

    <pedestrian>
        <walkingareas value="false"/>
    </pedestrian>

    <report>
        <aggregate-warnings value="5"/>
    </report>

</configuration>
-->

<net version="1.9" junctionCornerDetail="5" limitTurnSpeed="5.50" xmlns:xsi="http://www.w3.org/2001/XMLSchema-instance" xsi:noNamespaceSchemaLocation="http://sumo.dlr.de/xsd/net_file.xsd">

    <location netOffset="0.00,0.00" convBoundary="-100.00,-100.00,100.00,100.00" origBoundary="-10000000000.00,-10000000000.00,10000000000.00,10000000000.00" projParameter="!"/>

    <edge id=":J1_0" function="internal">
        <lane id=":J1_0_0" index="0" allow="bicycle" speed="5.01" length="5.64" width="1.00" shape="-3.70,7.20 -3.92,5.67 -4.58,4.58 -5.67,3.92 -7.20,3.70"/>
    </edge>
    <edge id=":J1_1" function="internal">
        <lane id=":J1_1_0" index="0" allow="bicycle" speed="13.89" length="14.40" width="1.00" shape="-3.70,7.20 -3.70,-7.20"/>
    </edge>
    <edge id=":J1_2" function="internal">
        <lane id=":J1_2_0" index="0" allow="bicycle" speed="8.67" length="4.82" width="1.00" shape="-3.70,7.20 -3.02,2.43"/>
    </edge>
    <edge id=":J1_3" function="internal">
        <lane id=":J1_3_0" index="0" speed="6.51" length="9.03" shape="-1.60,7.20 -1.95,4.75 -3.00,3.00 -4.75,1.95 -7.20,1.60"/>
    </edge>
    <edge id=":J1_4" function="internal">
        <lane id=":J1_4_0" index="0" speed="13.89" length="14.40" shape="-1.60,7.20 -1.60,-7.20"/>
    </edge>
    <edge id=":J1_5" function="internal">
        <lane id=":J1_5_0" index="0" speed="8.00" length="4.07" shape="-1.60,7.20 -1.05,3.35 -0.96,3.20"/>
    </edge>
    <edge id=":J1_24" function="internal">
        <lane id=":J1_24_0" index="0" allow="bicycle" speed="8.67" length="12.76" width="1.00" shape="-3.02,2.43 -0.97,-0.97 2.43,-3.02 7.20,-3.70"/>
    </edge>
    <edge id=":J1_25" function="internal">
        <lane id=":J1_25_0" index="0" speed="8.00" length="10.13" shape="-0.96,3.20 0.60,0.60 3.35,-1.05 7.20,-1.60"/>
    </edge>
    <edge id=":J1_6" function="internal">
        <lane id=":J1_6_0" index="0" allow="bicycle" speed="5.01" length="5.64" width="1.00" shape="7.20,3.70 5.67,3.92 4.58,4.58 3.92,5.67 3.70,7.20"/>
    </edge>
    <edge id=":J1_7" function="internal">
        <lane id=":J1_7_0" index="0" allow="bicycle" speed="13.89" length="14.40" width="1.00" shape="7.20,3.70 -7.20,3.70"/>
    </edge>
    <edge id=":J1_8" function="internal">
        <lane id=":J1_8_0" index="0" allow="bicycle" speed="8.67" length="9.17" width="1.00" shape="7.20,3.70 2.43,3.02 -0.97,0.97 -1.17,0.64"/>
    </edge>
    <edge id=":J1_9" function="internal">
        <lane id=":J1_9_0" index="0" speed="6.51" length="9.03" shape="7.20,1.60 4.75,1.95 3.00,3.00 1.95,4.75 1.60,7.20"/>
    </edge>
    <edge id=":J1_10" function="internal">
        <lane id=":J1_10_0" index="0" speed="13.89" length="14.40" shape="7.20,1.60 -7.20,1.60"/>
    </edge>
    <edge id=":J1_11" function="internal">
        <lane id=":J1_11_0" index="0" speed="8.00" length="4.07" shape="7.20,1.60 3.35,1.05 3.20,0.96"/>
    </edge>
    <edge id=":J1_26" function="internal">
        <lane id=":J1_26_0" index="0" allow="bicycle" speed="8.67" length="8.40" width="1.00" shape="-1.17,0.64 -3.02,-2.43 -3.70,-7.20"/>
    </edge>
    <edge id=":J1_27" function="internal">
        <lane id=":J1_27_0" index="0" speed="8.00" length="10.13" shape="3.20,0.96 0.60,-0.60 -1.05,-3.35 -1.60,-7.20"/>
    </edge>
    <edge id=":J1_12" function="internal">
        <lane id=":J1_12_0" index="0" allow="bicycle" speed="5.01" length="5.64" width="1.00" shape="3.70,-7.20 3.92,-5.67 4.58,-4.58 5.67,-3.92 7.20,-3.70"/>
    </edge>
    <edge id=":J1_13" function="internal">
        <lane id=":J1_13_0" index="0" allow="bicycle" speed="13.89" length="14.40" width="1.00" shape="3.70,-7.20 3.70,7.20"/>
    </edge>
    <edge id=":J1_14" function="internal">
        <lane id=":J1_14_0" index="0" allow="bicycle" speed="8.67" length="4.82" width="1.00" shape="3.70,-7.20 3.02,-2.43"/>
    </edge>
    <edge id=":J1_15" function="internal">
        <lane id=":J1_15_0" index="0" speed="6.51" length="9.03" shape="1.60,-7.20 1.95,-4.75 3.00,-3.00 4.75,-1.95 7.20,-1.60"/>
    </edge>
    <edge id=":J1_16" function="internal">
        <lane id=":J1_16_0" index="0" speed="13.89" length="14.40" shape="1.60,-7.20 1.60,7.20"/>
    </edge>
    <edge id=":J1_17" function="internal">
        <lane id=":J1_17_0" index="0" speed="8.00" length="4.07" shape="1.60,-7.20 1.05,-3.35 0.96,-3.20"/>
    </edge>
    <edge id=":J1_28" function="internal">
        <lane id=":J1_28_0" index="0" allow="bicycle" speed="8.67" length="12.76" width="1.00" shape="3.02,-2.43 0.97,0.97 -2.43,3.02 -7.20,3.70"/>
    </edge>
    <edge id=":J1_29" function="internal">
        <lane id=":J1_29_0" index="0" speed="8.00" length="10.13" shape="0.96,-3.20 -0.60,-0.60 -3.35,1.05 -7.20,1.60"/>
    </edge>
    <edge id=":J1_18" function="internal">
        <lane id=":J1_18_0" index="0" allow="bicycle" speed="5.01" length="5.64" width="1.00" shape="-7.20,-3.70 -5.67,-3.92 -4.58,-4.58 -3.92,-5.67 -3.70,-7.20"/>
    </edge>
    <edge id=":J1_19" function="internal">
        <lane id=":J1_19_0" index="0" allow="bicycle" speed="13.89" length="14.40" width="1.00" shape="-7.20,-3.70 7.20,-3.70"/>
    </edge>
    <edge id=":J1_20" function="internal">
        <lane id=":J1_20_0" index="0" allow="bicycle" speed="8.67" length="9.17" width="1.00" shape="-7.20,-3.70 -2.43,-3.02 0.97,-0.97 1.17,-0.64"/>
    </edge>
    <edge id=":J1_21" function="internal">
        <lane id=":J1_21_0" index="0" speed="6.51" length="9.03" shape="-7.20,-1.60 -4.75,-1.95 -3.00,-3.00 -1.95,-4.75 -1.60,-7.20"/>
    </edge>
    <edge id=":J1_22" function="internal">
        <lane id=":J1_22_0" index="0" speed="13.89" length="14.40" shape="-7.20,-1.60 7.20,-1.60"/>
    </edge>
    <edge id=":J1_23" function="internal">
        <lane id=":J1_23_0" index="0" speed="8.00" length="4.07" shape="-7.20,-1.60 -3.35,-1.05 -3.20,-0.96"/>
    </edge>
    <edge id=":J1_30" function="internal">
        <lane id=":J1_30_0" index="0" allow="bicycle" speed="8.67" length="8.40" width="1.00" shape="1.17,-0.64 3.02,2.43 3.70,7.20"/>
    </edge>
    <edge id=":J1_31" function="internal">
        <lane id=":J1_31_0" index="0" speed="8.00" length="10.13" shape="-3.20,-0.96 -0.60,0.60 1.05,3.35 1.60,7.20"/>
    </edge>

    <edge id="-E0" from="J1" to="J0" priority="-1">
        <lane id="-E0_0" index="0" allow="bicycle" speed="13.89" length="92.80" width="1.00" shape="3.70,7.20 3.70,100.00"/>
        <lane id="-E0_1" index="1" speed="13.89" length="92.80" shape="1.60,7.20 1.60,100.00"/>
    </edge>
    <edge id="-E1" from="J1" to="J2" priority="-1">
        <lane id="-E1_0" index="0" allow="bicycle" speed="13.89" length="92.80" width="1.00" shape="-7.20,3.70 -100.00,3.70"/>
        <lane id="-E1_1" index="1" speed="13.89" length="92.80" shape="-7.20,1.60 -100.00,1.60"/>
    </edge>
    <edge id="-E2" from="J1" to="J3" priority="-1">
        <lane id="-E2_0" index="0" allow="bicycle" speed="13.89" length="92.80" width="1.00" shape="-3.70,-7.20 -3.70,-100.00"/>
        <lane id="-E2_1" index="1" speed="13.89" length="92.80" shape="-1.60,-7.20 -1.60,-100.00"/>
    </edge>
    <edge id="-E3" from="J1" to="J4" priority="-1">
        <lane id="-E3_0" index="0" allow="bicycle" speed="13.89" length="92.80" width="1.00" shape="7.20,-3.70 100.00,-3.70"/>
        <lane id="-E3_1" index="1" speed="13.89" length="92.80" shape="7.20,-1.60 100.00,-1.60"/>
    </edge>
    <edge id="E0" from="J0" to="J1" priority="-1">
        <lane id="E0_0" index="0" allow="bicycle" speed="13.89" length="92.80" width="1.00" shape="-3.70,100.00 -3.70,7.20"/>
        <lane id="E0_1" index="1" speed="13.89" length="92.80" shape="-1.60,100.00 -1.60,7.20"/>
    </edge>
    <edge id="E1" from="J2" to="J1" priority="-1">
        <lane id="E1_0" index="0" allow="bicycle" speed="13.89" length="92.80" width="1.00" shape="-100.00,-3.70 -7.20,-3.70"/>
        <lane id="E1_1" index="1" speed="13.89" length="92.80" shape="-100.00,-1.60 -7.20,-1.60"/>
    </edge>
    <edge id="E2" from="J3" to="J1" priority="-1">
        <lane id="E2_0" index="0" allow="bicycle" speed="13.89" length="92.80" width="1.00" shape="3.70,-100.00 3.70,-7.20"/>
        <lane id="E2_1" index="1" speed="13.89" length="92.80" shape="1.60,-100.00 1.60,-7.20"/>
    </edge>
    <edge id="E3" from="J4" to="J1" priority="-1">
        <lane id="E3_0" index="0" allow="bicycle" speed="13.89" length="92.80" width="1.00" shape="100.00,3.70 7.20,3.70"/>
        <lane id="E3_1" index="1" speed="13.89" length="92.80" shape="100.00,1.60 7.20,1.60"/>
    </edge>

    <tlLogic id="J1" type="static" programID="0" offset="0">
        <phase duration="20" state="GGGrrrrrrrrrGGgrrrrrrrrr"/>
        <phase duration="4"  state="yyyrrrrrrrrryyyrrrrrrrrr"/>
        <phase duration="20" state="rrrGGgrrrrrrrrrGGgrrrrrr"/>
        <phase duration="4"  state="rrryyyrrrrrrrrryyyrrrrrr"/>
        <phase duration="20" state="rrrrrrGGGrrrrrrrrrGGgrrr"/>
        <phase duration="4"  state="rrrrrryyyrrrrrrrrryyyrrr"/>
        <phase duration="20" state="rrrrrrrrrGgGrrrrrrrrrGGg"/>
        <phase duration="4"  state="rrrrrrrrryyyrrrrrrrrryyy"/>
    </tlLogic>

    <junction id="J0" type="dead_end" x="0.00" y="100.00" incLanes="-E0_0 -E0_1" intLanes="" shape="0.00,100.00 4.20,100.00 0.00,100.00"/>
    <junction id="J1" type="traffic_light" x="0.00" y="0.00" incLanes="E0_0 E0_1 E3_0 E3_1 E2_0 E2_1 E1_0 E1_1" intLanes=":J1_0_0 :J1_1_0 :J1_24_0 :J1_3_0 :J1_4_0 :J1_25_0 :J1_6_0 :J1_7_0 :J1_26_0 :J1_9_0 :J1_10_0 :J1_27_0 :J1_12_0 :J1_13_0 :J1_28_0 :J1_15_0 :J1_16_0 :J1_29_0 :J1_18_0 :J1_19_0 :J1_30_0 :J1_21_0 :J1_22_0 :J1_31_0" shape="-4.20,7.20 4.20,7.20 4.53,5.53 4.95,4.95 5.53,4.53 6.28,4.28 7.20,4.20 7.20,-4.20 5.53,-4.53 4.95,-4.95 4.53,-5.53 4.28,-6.28 4.20,-7.20 -4.20,-7.20 -4.53,-5.53 -4.95,-4.95 -5.53,-4.53 -6.28,-4.28 -7.20,-4.20 -7.20,4.20 -5.53,4.53 -4.95,4.95 -4.53,5.53 -4.28,6.28">
        <request index="0"  response="000000000000000000000000" foes="000000000100000010000000" cont="0"/>
        <request index="1"  response="100100000000000100000000" foes="111111100100010110001000" cont="0"/>
        <request index="2"  response="100100111111100100010000" foes="110110111111110110011000" cont="1"/>
        <request index="3"  response="000000000000000000000110" foes="000000100100010010000110" cont="0"/>
        <request index="4"  response="100100000000100100000000" foes="111110100100110110000100" cont="0"/>
        <request index="5"  response="100100111110100100000000" foes="110100111110110110000000" cont="1"/>
        <request index="6"  response="000000000010000000000000" foes="000100000010000000000000" cont="0"/>
        <request index="7"  response="000000010110000000111111" foes="100100010110001000111111" cont="0"/>
        <request index="8"  response="011011110110010000110110" foes="111111110110011000110110" cont="1"/>
        <request index="9"  response="000000010010000110000000" foes="100100010010000110000000" cont="0"/>
        <request index="10" response="000000110110000000111110" foes="100100110110000100111110" cont="0"/>
        <request index="11" response="011010110110000000110100" foes="111110110110000000110100" cont="1"/>
        <request index="12" response="000000000000000000000000" foes="000010000000000000000100" cont="0"/>
        <request index="13" response="000100000000100100000000" foes="010110001000111111100100" cont="0"/>
        <request index="14" response="100100010000100100011011" foes="110110011000110110111111" cont="1"/>
        <request index="15" response="000000000110000000000000" foes="010010000110000000100100" cont="0"/>
        <request index="16" response="100100000000100100000000" foes="110110000100111110100100" cont="0"/>
        <request index="17" response="100100000000100100011010" foes="110110000000110100111110" cont="1"/>
        <request index="18" response="000000000000000000000010" foes="000000000000000100000010" cont="0"/>
        <request index="19" response="000000111111000000010110" foes="001000111111100100010110" cont="0"/>
        <request index="20" response="010000110110111111110110" foes="011000110110111111110110" cont="1"/>
        <request index="21" response="000110000000000000010010" foes="000110000000100100010010" cont="0"/>
        <request index="22" response="000000111110000000110110" foes="000100111110100100110110" cont="0"/>
        <request index="23" response="000000110100111110110110" foes="000000110100111110110110" cont="1"/>
    </junction>
    <junction id="J2" type="dead_end" x="-100.00" y="0.00" incLanes="-E1_0 -E1_1" intLanes="" shape="-100.00,0.00 -100.00,4.20 -100.00,0.00"/>
    <junction id="J3" type="dead_end" x="0.00" y="-100.00" incLanes="-E2_0 -E2_1" intLanes="" shape="0.00,-100.00 -4.20,-100.00 0.00,-100.00"/>
    <junction id="J4" type="dead_end" x="100.00" y="0.00" incLanes="-E3_0 -E3_1" intLanes="" shape="100.00,0.00 100.00,-4.20 100.00,0.00"/>

    <junction id=":J1_24_0" type="internal" x="-3.02" y="2.43" incLanes=":J1_2_0 :J1_14_0 :J1_17_0 E2_0 E2_1" intLanes=":J1_28_0 :J1_29_0 :J1_4_0 :J1_7_0 :J1_8_0 :J1_10_0 :J1_11_0 :J1_12_0 :J1_13_0 :J1_14_0 :J1_15_0 :J1_16_0 :J1_17_0 :J1_19_0 :J1_20_0 :J1_22_0 :J1_23_0"/>
    <junction id=":J1_25_0" type="internal" x="-0.96" y="3.20" incLanes=":J1_5_0 :J1_14_0 E2_0 E2_1" intLanes=":J1_28_0 :J1_7_0 :J1_8_0 :J1_10_0 :J1_11_0 :J1_12_0 :J1_13_0 :J1_14_0 :J1_15_0 :J1_16_0 :J1_19_0 :J1_20_0 :J1_22_0 :J1_23_0"/>
    <junction id=":J1_26_0" type="internal" x="-1.17" y="0.64" incLanes=":J1_8_0 E1_0 E1_1" intLanes=":J1_1_0 :J1_2_0 :J1_4_0 :J1_5_0 :J1_10_0 :J1_13_0 :J1_14_0 :J1_16_0 :J1_17_0 :J1_18_0 :J1_19_0 :J1_20_0 :J1_21_0 :J1_22_0 :J1_23_0"/>
    <junction id=":J1_27_0" type="internal" x="3.20" y="0.96" incLanes=":J1_11_0 E1_0 E1_1" intLanes=":J1_1_0 :J1_2_0 :J1_4_0 :J1_5_0 :J1_13_0 :J1_14_0 :J1_16_0 :J1_17_0 :J1_18_0 :J1_19_0 :J1_20_0 :J1_21_0 :J1_22_0"/>
    <junction id=":J1_28_0" type="internal" x="3.02" y="-2.43" incLanes=":J1_14_0 E0_0 E0_1" intLanes=":J1_0_0 :J1_1_0 :J1_2_0 :J1_3_0 :J1_4_0 :J1_5_0 :J1_7_0 :J1_8_0 :J1_10_0 :J1_11_0 :J1_16_0 :J1_19_0 :J1_20_0 :J1_22_0 :J1_23_0"/>
    <junction id=":J1_29_0" type="internal" x="0.96" y="-3.20" incLanes=":J1_17_0 E0_0 E0_1" intLanes=":J1_0_0 :J1_1_0 :J1_2_0 :J1_3_0 :J1_4_0 :J1_7_0 :J1_8_0 :J1_10_0 :J1_11_0 :J1_19_0 :J1_20_0 :J1_22_0 :J1_23_0"/>
    <junction id=":J1_30_0" type="internal" x="1.17" y="-0.64" incLanes=":J1_20_0 E3_0 E3_1" intLanes=":J1_1_0 :J1_2_0 :J1_4_0 :J1_5_0 :J1_6_0 :J1_7_0 :J1_8_0 :J1_9_0 :J1_10_0 :J1_11_0 :J1_13_0 :J1_14_0 :J1_16_0 :J1_17_0 :J1_22_0"/>
    <junction id=":J1_31_0" type="internal" x="-3.20" y="-0.96" incLanes=":J1_23_0 E3_0 E3_1" intLanes=":J1_1_0 :J1_2_0 :J1_4_0 :J1_5_0 :J1_6_0 :J1_7_0 :J1_8_0 :J1_9_0 :J1_10_0 :J1_13_0 :J1_14_0 :J1_16_0 :J1_17_0"/>

    <connection from="E0" to="-E1" fromLane="0" toLane="0" via=":J1_0_0" tl="J1" linkIndex="0" dir="r" state="O"/>
    <connection from="E0" to="-E2" fromLane="0" toLane="0" via=":J1_1_0" tl="J1" linkIndex="1" dir="s" state="O"/>
    <connection from="E0" to="-E3" fromLane="0" toLane="0" via=":J1_2_0" tl="J1" linkIndex="2" dir="l" state="o"/>
    <connection from="E0" to="-E1" fromLane="1" toLane="1" via=":J1_3_0" tl="J1" linkIndex="3" dir="r" state="o"/>
    <connection from="E0" to="-E2" fromLane="1" toLane="1" via=":J1_4_0" tl="J1" linkIndex="4" dir="s" state="O"/>
    <connection from="E0" to="-E3" fromLane="1" toLane="1" via=":J1_5_0" tl="J1" linkIndex="5" dir="l" state="o"/>
    <connection from="E1" to="-E2" fromLane="0" toLane="0" via=":J1_18_0" tl="J1" linkIndex="18" dir="r" state="o"/>
    <connection from="E1" to="-E3" fromLane="0" toLane="0" via=":J1_19_0" tl="J1" linkIndex="19" dir="s" state="o"/>
    <connection from="E1" to="-E0" fromLane="0" toLane="0" via=":J1_20_0" tl="J1" linkIndex="20" dir="l" state="o"/>
    <connection from="E1" to="-E2" fromLane="1" toLane="1" via=":J1_21_0" tl="J1" linkIndex="21" dir="r" state="o"/>
    <connection from="E1" to="-E3" fromLane="1" toLane="1" via=":J1_22_0" tl="J1" linkIndex="22" dir="s" state="o"/>
    <connection from="E1" to="-E0" fromLane="1" toLane="1" via=":J1_23_0" tl="J1" linkIndex="23" dir="l" state="o"/>
    <connection from="E2" to="-E3" fromLane="0" toLane="0" via=":J1_12_0" tl="J1" linkIndex="12" dir="r" state="O"/>
    <connection from="E2" to="-E0" fromLane="0" toLane="0" via=":J1_13_0" tl="J1" linkIndex="13" dir="s" state="O"/>
    <connection from="E2" to="-E1" fromLane="0" toLane="0" via=":J1_14_0" tl="J1" linkIndex="14" dir="l" state="o"/>
    <connection from="E2" to="-E3" fromLane="1" toLane="1" via=":J1_15_0" tl="J1" linkIndex="15" dir="r" state="o"/>
    <connection from="E2" to="-E0" fromLane="1" toLane="1" via=":J1_16_0" tl="J1" linkIndex="16" dir="s" state="O"/>
    <connection from="E2" to="-E1" fromLane="1" toLane="1" via=":J1_17_0" tl="J1" linkIndex="17" dir="l" state="o"/>
    <connection from="E3" to="-E0" fromLane="0" toLane="0" via=":J1_6_0" tl="J1" linkIndex="6" dir="r" state="o"/>
    <connection from="E3" to="-E1" fromLane="0" toLane="0" via=":J1_7_0" tl="J1" linkIndex="7" dir="s" state="o"/>
    <connection from="E3" to="-E2" fromLane="0" toLane="0" via=":J1_8_0" tl="J1" linkIndex="8" dir="l" state="o"/>
    <connection from="E3" to="-E0" fromLane="1" toLane="1" via=":J1_9_0" tl="J1" linkIndex="9" dir="r" state="o"/>
    <connection from="E3" to="-E1" fromLane="1" toLane="1" via=":J1_10_0" tl="J1" linkIndex="11" dir="s" state="o"/>
    <connection from="E3" to="-E2" fromLane="1" toLane="1" via=":J1_11_0" tl="J1" linkIndex="10" dir="l" state="o"/>

    <connection from=":J1_0" to="-E1" fromLane="0" toLane="0" dir="r" state="M"/>
    <connection from=":J1_1" to="-E2" fromLane="0" toLane="0" dir="s" state="M"/>
    <connection from=":J1_2" to="-E3" fromLane="0" toLane="0" via=":J1_24_0" dir="l" state="m"/>
    <connection from=":J1_24" to="-E3" fromLane="0" toLane="0" dir="l" state="M"/>
    <connection from=":J1_3" to="-E1" fromLane="0" toLane="1" dir="r" state="M"/>
    <connection from=":J1_4" to="-E2" fromLane="0" toLane="1" dir="s" state="M"/>
    <connection from=":J1_5" to="-E3" fromLane="0" toLane="1" via=":J1_25_0" dir="l" state="m"/>
    <connection from=":J1_25" to="-E3" fromLane="0" toLane="1" dir="l" state="M"/>
    <connection from=":J1_6" to="-E0" fromLane="0" toLane="0" dir="r" state="M"/>
    <connection from=":J1_7" to="-E1" fromLane="0" toLane="0" dir="s" state="M"/>
    <connection from=":J1_8" to="-E2" fromLane="0" toLane="0" via=":J1_26_0" dir="l" state="m"/>
    <connection from=":J1_26" to="-E2" fromLane="0" toLane="0" dir="l" state="M"/>
    <connection from=":J1_9" to="-E0" fromLane="0" toLane="1" dir="r" state="M"/>
    <connection from=":J1_10" to="-E1" fromLane="0" toLane="1" dir="s" state="M"/>
    <connection from=":J1_11" to="-E2" fromLane="0" toLane="1" via=":J1_27_0" dir="l" state="m"/>
    <connection from=":J1_27" to="-E2" fromLane="0" toLane="1" dir="l" state="M"/>
    <connection from=":J1_12" to="-E3" fromLane="0" toLane="0" dir="r" state="M"/>
    <connection from=":J1_13" to="-E0" fromLane="0" toLane="0" dir="s" state="M"/>
    <connection from=":J1_14" to="-E1" fromLane="0" toLane="0" via=":J1_28_0" dir="l" state="m"/>
    <connection from=":J1_28" to="-E1" fromLane="0" toLane="0" dir="l" state="M"/>
    <connection from=":J1_15" to="-E3" fromLane="0" toLane="1" dir="r" state="M"/>
    <connection from=":J1_16" to="-E0" fromLane="0" toLane="1" dir="s" state="M"/>
    <connection from=":J1_17" to="-E1" fromLane="0" toLane="1" via=":J1_29_0" dir="l" state="m"/>
    <connection from=":J1_29" to="-E1" fromLane="0" toLane="1" dir="l" state="M"/>
    <connection from=":J1_18" to="-E2" fromLane="0" toLane="0" dir="r" state="M"/>
    <connection from=":J1_19" to="-E3" fromLane="0" toLane="0" dir="s" state="M"/>
    <connection from=":J1_20" to="-E0" fromLane="0" toLane="0" via=":J1_30_0" dir="l" state="m"/>
    <connection from=":J1_30" to="-E0" fromLane="0" toLane="0" dir="l" state="M"/>
    <connection from=":J1_21" to="-E2" fromLane="0" toLane="1" dir="r" state="M"/>
    <connection from=":J1_22" to="-E3" fromLane="0" toLane="1" dir="s" state="M"/>
    <connection from=":J1_23" to="-E0" fromLane="0" toLane="1" via=":J1_31_0" dir="l" state="m"/>
    <connection from=":J1_31" to="-E0" fromLane="0" toLane="1" dir="l" state="M"/>

</net>
