<?xml version="1.0" encoding="UTF-8"?>

<!-- generated on 2023-05-09 17:19:20 by Eclipse SUMO netedit Version 1.12.0
<configuration xmlns:xsi="http://www.w3.org/2001/XMLSchema-instance" xsi:noNamespaceSchemaLocation="http://sumo.dlr.de/xsd/netconvertConfiguration.xsd">

    <input>
        <sumo-net-file value="/home/lucas/Projects/sumo_structure/sumo_files/net1.net.xml"/>
    </input>

    <output>
        <output-file value="/home/lucas/Projects/sumo_structure/sumo_files/net1.net.xml"/>
    </output>

    <processing>
        <geometry.min-radius.fix.railways value="false"/>
        <geometry.max-grade.fix value="false"/>
        <offset.disable-normalization value="true"/>
        <lefthand value="false"/>
    </processing>

    <junctions>
        <no-turnarounds value="true"/>
        <junctions.corner-detail value="5"/>
        <junctions.limit-turn-speed value="5.5"/>
        <rectangular-lane-cut value="false"/>
    </junctions>

    <pedestrian>
        <walkingareas value="false"/>
    </pedestrian>

    <report>
        <aggregate-warnings value="5"/>
    </report>

</configuration>
-->

<net version="1.9" junctionCornerDetail="5" limitTurnSpeed="5.50" xmlns:xsi="http://www.w3.org/2001/XMLSchema-instance" xsi:noNamespaceSchemaLocation="http://sumo.dlr.de/xsd/net_file.xsd">

    <location netOffset="0.00,0.00" convBoundary="-100.00,0.00,100.00,200.00" origBoundary="-10000000000.00,-10000000000.00,10000000000.00,10000000000.00" projParameter="!"/>

    <edge id=":J2_0" function="internal">
        <lane id=":J2_0_0" index="0" speed="6.51" length="9.03" shape="-11.20,116.80 -11.55,114.35 -12.60,112.60 -14.35,111.55 -16.80,111.20"/>
    </edge>
    <edge id=":J2_1" function="internal">
        <lane id=":J2_1_0" index="0" speed="13.89" length="33.60" shape="-11.20,116.80 -11.20,83.20"/>
        <lane id=":J2_1_1" index="1" speed="13.89" length="33.60" shape="-8.00,116.80 -8.00,83.20"/>
        <lane id=":J2_1_2" index="2" speed="13.89" length="33.60" shape="-4.80,116.80 -4.80,83.20"/>
    </edge>
    <edge id=":J2_4" function="internal">
        <lane id=":J2_4_0" index="0" speed="12.76" length="19.72" shape="-1.60,116.80 -0.45,104.55 2.27,97.65"/>
    </edge>
    <edge id=":J2_20" function="internal">
        <lane id=":J2_20_0" index="0" speed="12.76" length="18.02" shape="2.27,97.65 3.00,95.80 8.75,90.55 16.80,88.80"/>
    </edge>
    <edge id=":J2_5" function="internal">
        <lane id=":J2_5_0" index="0" speed="6.51" length="9.03" shape="16.80,111.20 14.35,111.55 12.60,112.60 11.55,114.35 11.20,116.80"/>
    </edge>
    <edge id=":J2_6" function="internal">
        <lane id=":J2_6_0" index="0" speed="13.89" length="33.60" shape="16.80,111.20 -16.80,111.20"/>
        <lane id=":J2_6_1" index="1" speed="13.89" length="33.60" shape="16.80,108.00 -16.80,108.00"/>
        <lane id=":J2_6_2" index="2" speed="13.89" length="33.60" shape="16.80,104.80 -16.80,104.80"/>
    </edge>
    <edge id=":J2_9" function="internal">
        <lane id=":J2_9_0" index="0" speed="12.76" length="19.72" shape="16.80,101.60 4.55,100.45 -2.35,97.73"/>
    </edge>
    <edge id=":J2_21" function="internal">
        <lane id=":J2_21_0" index="0" speed="12.76" length="18.02" shape="-2.35,97.73 -4.20,97.00 -9.45,91.25 -11.20,83.20"/>
    </edge>
    <edge id=":J2_10" function="internal">
        <lane id=":J2_10_0" index="0" speed="6.51" length="9.03" shape="11.20,83.20 11.55,85.65 12.60,87.40 14.35,88.45 16.80,88.80"/>
    </edge>
    <edge id=":J2_11" function="internal">
        <lane id=":J2_11_0" index="0" speed="13.89" length="33.60" shape="11.20,83.20 11.20,116.80"/>
        <lane id=":J2_11_1" index="1" speed="13.89" length="33.60" shape="8.00,83.20 8.00,116.80"/>
        <lane id=":J2_11_2" index="2" speed="13.89" length="33.60" shape="4.80,83.20 4.80,116.80"/>
    </edge>
    <edge id=":J2_14" function="internal">
        <lane id=":J2_14_0" index="0" speed="12.76" length="19.72" shape="1.60,83.20 0.45,95.45 -2.27,102.35"/>
    </edge>
    <edge id=":J2_22" function="internal">
        <lane id=":J2_22_0" index="0" speed="12.76" length="18.02" shape="-2.27,102.35 -3.00,104.20 -8.75,109.45 -16.80,111.20"/>
    </edge>
    <edge id=":J2_15" function="internal">
        <lane id=":J2_15_0" index="0" speed="6.51" length="9.03" shape="-16.80,88.80 -14.35,88.45 -12.60,87.40 -11.55,85.65 -11.20,83.20"/>
    </edge>
    <edge id=":J2_16" function="internal">
        <lane id=":J2_16_0" index="0" speed="13.89" length="33.60" shape="-16.80,88.80 16.80,88.80"/>
        <lane id=":J2_16_1" index="1" speed="13.89" length="33.60" shape="-16.80,92.00 16.80,92.00"/>
        <lane id=":J2_16_2" index="2" speed="13.89" length="33.60" shape="-16.80,95.20 16.80,95.20"/>
    </edge>
    <edge id=":J2_19" function="internal">
        <lane id=":J2_19_0" index="0" speed="12.76" length="19.72" shape="-16.80,98.40 -4.55,99.55 2.35,102.27"/>
    </edge>
    <edge id=":J2_23" function="internal">
        <lane id=":J2_23_0" index="0" speed="12.76" length="18.02" shape="2.35,102.27 4.20,103.00 9.45,108.75 11.20,116.80"/>
    </edge>

    <edge id="-E0" from="J2" to="J1" priority="-1">
        <lane id="-E0_0" index="0" speed="13.89" length="83.20" shape="11.20,116.80 11.20,200.00"/>
        <lane id="-E0_1" index="1" speed="13.89" length="83.20" shape="8.00,116.80 8.00,200.00"/>
        <lane id="-E0_2" index="2" speed="13.89" length="83.20" shape="4.80,116.80 4.80,200.00"/>
        <lane id="-E0_3" index="3" speed="13.89" length="83.20" shape="1.60,116.80 1.60,200.00"/>
    </edge>
    <edge id="-E1" from="J2" to="J3" priority="-1">
        <lane id="-E1_0" index="0" speed="13.89" length="83.20" shape="-16.80,111.20 -100.00,111.20"/>
        <lane id="-E1_1" index="1" speed="13.89" length="83.20" shape="-16.80,108.00 -100.00,108.00"/>
        <lane id="-E1_2" index="2" speed="13.89" length="83.20" shape="-16.80,104.80 -100.00,104.80"/>
        <lane id="-E1_3" index="3" speed="13.89" length="83.20" shape="-16.80,101.60 -100.00,101.60"/>
    </edge>
    <edge id="-E2" from="J2" to="J4" priority="-1">
        <lane id="-E2_0" index="0" speed="13.89" length="83.20" shape="-11.20,83.20 -11.20,0.00"/>
        <lane id="-E2_1" index="1" speed="13.89" length="83.20" shape="-8.00,83.20 -8.00,0.00"/>
        <lane id="-E2_2" index="2" speed="13.89" length="83.20" shape="-4.80,83.20 -4.80,0.00"/>
        <lane id="-E2_3" index="3" speed="13.89" length="83.20" shape="-1.60,83.20 -1.60,0.00"/>
    </edge>
    <edge id="-E3" from="J2" to="J5" priority="-1">
        <lane id="-E3_0" index="0" speed="13.89" length="83.20" shape="16.80,88.80 100.00,88.80"/>
        <lane id="-E3_1" index="1" speed="13.89" length="83.20" shape="16.80,92.00 100.00,92.00"/>
        <lane id="-E3_2" index="2" speed="13.89" length="83.20" shape="16.80,95.20 100.00,95.20"/>
        <lane id="-E3_3" index="3" speed="13.89" length="83.20" shape="16.80,98.40 100.00,98.40"/>
    </edge>
    <edge id="E0" from="J1" to="J2" priority="-1">
        <lane id="E0_0" index="0" speed="13.89" length="83.20" shape="-11.20,200.00 -11.20,116.80"/>
        <lane id="E0_1" index="1" speed="13.89" length="83.20" shape="-8.00,200.00 -8.00,116.80"/>
        <lane id="E0_2" index="2" speed="13.89" length="83.20" shape="-4.80,200.00 -4.80,116.80"/>
        <lane id="E0_3" index="3" speed="13.89" length="83.20" shape="-1.60,200.00 -1.60,116.80"/>
    </edge>
    <edge id="E1" from="J3" to="J2" priority="-1">
        <lane id="E1_0" index="0" speed="13.89" length="83.20" shape="-100.00,88.80 -16.80,88.80"/>
        <lane id="E1_1" index="1" speed="13.89" length="83.20" shape="-100.00,92.00 -16.80,92.00"/>
        <lane id="E1_2" index="2" speed="13.89" length="83.20" shape="-100.00,95.20 -16.80,95.20"/>
        <lane id="E1_3" index="3" speed="13.89" length="83.20" shape="-100.00,98.40 -16.80,98.40"/>
    </edge>
    <edge id="E2" from="J4" to="J2" priority="-1">
        <lane id="E2_0" index="0" speed="13.89" length="83.20" shape="11.20,0.00 11.20,83.20"/>
        <lane id="E2_1" index="1" speed="13.89" length="83.20" shape="8.00,0.00 8.00,83.20"/>
        <lane id="E2_2" index="2" speed="13.89" length="83.20" shape="4.80,0.00 4.80,83.20"/>
        <lane id="E2_3" index="3" speed="13.89" length="83.20" shape="1.60,0.00 1.60,83.20"/>
    </edge>
    <edge id="E3" from="J5" to="J2" priority="-1">
        <lane id="E3_0" index="0" speed="13.89" length="83.20" shape="100.00,111.20 16.80,111.20"/>
        <lane id="E3_1" index="1" speed="13.89" length="83.20" shape="100.00,108.00 16.80,108.00"/>
        <lane id="E3_2" index="2" speed="13.89" length="83.20" shape="100.00,104.80 16.80,104.80"/>
        <lane id="E3_3" index="3" speed="13.89" length="83.20" shape="100.00,101.60 16.80,101.60"/>
    </edge>

    <tlLogic id="J2" type="static" programID="0" offset="0">
        <phase duration="40" minDur="10" maxDur="40" state="GGGGgrrrrrGGGGgrrrrr"/>
        <phase duration="4"  state="GyyygrrrrrGyyygrrrrr"/>
        <phase duration="40" minDur="10" maxDur="40" state="grrrGrrrrrgrrrGrrrrr"/>
        <phase duration="4"  state="yyyyyrrrrryyyyyrrrrr"/>
        <phase duration="40" minDur="10" maxDur="40" state="rrrrrGGGGgrrrrrGGGGg"/>
        <phase duration="4"  state="rrrrrGyyygrrrrrGyyyg"/>
        <phase duration="40"  minDur="10" maxDur="40" state="rrrrrgrrrGrrrrrgrrrG"/>
        <phase duration="4"  state="rrrrryyyyyrrrrryyyyy"/>
    </tlLogic>

    <junction id="J1" type="dead_end" x="0.00" y="200.00" incLanes="-E0_0 -E0_1 -E0_2 -E0_3" intLanes="" shape="0.00,200.00 12.80,200.00 0.00,200.00"/>
    <junction id="J2" type="traffic_light" x="0.00" y="100.00" incLanes="E0_0 E0_1 E0_2 E0_3 E3_0 E3_1 E3_2 E3_3 E2_0 E2_1 E2_2 E2_3 E1_0 E1_1 E1_2 E1_3" intLanes=":J2_0_0 :J2_1_0 :J2_1_1 :J2_1_2 :J2_20_0 :J2_5_0 :J2_6_0 :J2_6_1 :J2_6_2 :J2_21_0 :J2_10_0 :J2_11_0 :J2_11_1 :J2_11_2 :J2_22_0 :J2_15_0 :J2_16_0 :J2_16_1 :J2_16_2 :J2_23_0" shape="-12.80,116.80 12.80,116.80 13.24,114.58 13.80,113.80 14.58,113.24 15.58,112.91 16.80,112.80 16.80,87.20 14.58,86.76 13.80,86.20 13.24,85.42 12.91,84.42 12.80,83.20 -12.80,83.20 -13.24,85.42 -13.80,86.20 -14.58,86.76 -15.58,87.09 -16.80,87.20 -16.80,112.80 -14.58,113.24 -13.80,113.80 -13.24,114.58 -12.91,115.58">
        <request index="0"  response="00000000000000000000" foes="00000100000111000000" cont="0"/>
        <request index="1"  response="10000000001000000000" foes="11111100001111000000" cont="0"/>
        <request index="2"  response="10000000001000000000" foes="11111100001111000000" cont="0"/>
        <request index="3"  response="10000000001000000000" foes="11111100001111000000" cont="0"/>
        <request index="4"  response="10000011111000000000" foes="11110011111111000000" cont="1"/>
        <request index="5"  response="00000011100000000000" foes="10000011100000000000" cont="0"/>
        <request index="6"  response="00000111100000011111" foes="10000111100000011111" cont="0"/>
        <request index="7"  response="00000111100000011111" foes="10000111100000011111" cont="0"/>
        <request index="8"  response="00000111100000011111" foes="10000111100000011111" cont="0"/>
        <request index="9"  response="01111111100000011110" foes="01111111100000011110" cont="1"/>
        <request index="10" response="00000000000000000000" foes="01110000000000010000" cont="0"/>
        <request index="11" response="10000000001000000000" foes="11110000001111110000" cont="0"/>
        <request index="12" response="10000000001000000000" foes="11110000001111110000" cont="0"/>
        <request index="13" response="10000000001000000000" foes="11110000001111110000" cont="0"/>
        <request index="14" response="10000000001000001111" foes="11110000001111001111" cont="1"/>
        <request index="15" response="00000000000000001110" foes="00000000001000001110" cont="0"/>
        <request index="16" response="00000111110000011110" foes="00000111111000011110" cont="0"/>
        <request index="17" response="00000111110000011110" foes="00000111111000011110" cont="0"/>
        <request index="18" response="00000111110000011110" foes="00000111111000011110" cont="0"/>
        <request index="19" response="00000111100111111110" foes="00000111100111111110" cont="1"/>
    </junction>
    <junction id="J3" type="dead_end" x="-100.00" y="100.00" incLanes="-E1_0 -E1_1 -E1_2 -E1_3" intLanes="" shape="-100.00,100.00 -100.00,112.80 -100.00,100.00"/>
    <junction id="J4" type="dead_end" x="0.00" y="0.00" incLanes="-E2_0 -E2_1 -E2_2 -E2_3" intLanes="" shape="0.00,0.00 -12.80,0.00 0.00,0.00"/>
    <junction id="J5" type="dead_end" x="100.00" y="100.00" incLanes="-E3_0 -E3_1 -E3_2 -E3_3" intLanes="" shape="100.00,100.00 100.00,87.20 100.00,100.00"/>

    <junction id=":J2_20_0" type="internal" x="2.27" y="97.65" incLanes=":J2_4_0 E2_0 E2_1 E2_2" intLanes=":J2_6_0 :J2_6_1 :J2_6_2 :J2_9_0 :J2_10_0 :J2_11_0 :J2_11_1 :J2_11_2 :J2_16_0 :J2_16_1 :J2_16_2 :J2_19_0"/>
    <junction id=":J2_21_0" type="internal" x="-2.35" y="97.73" incLanes=":J2_9_0 E1_0 E1_1 E1_2" intLanes=":J2_1_0 :J2_1_1 :J2_1_2 :J2_4_0 :J2_11_0 :J2_11_1 :J2_11_2 :J2_14_0 :J2_15_0 :J2_16_0 :J2_16_1 :J2_16_2"/>
    <junction id=":J2_22_0" type="internal" x="-2.27" y="102.35" incLanes=":J2_14_0 E0_0 E0_1 E0_2" intLanes=":J2_0_0 :J2_1_0 :J2_1_1 :J2_1_2 :J2_6_0 :J2_6_1 :J2_6_2 :J2_9_0 :J2_16_0 :J2_16_1 :J2_16_2 :J2_19_0"/>
    <junction id=":J2_23_0" type="internal" x="2.35" y="102.27" incLanes=":J2_19_0 E3_0 E3_1 E3_2" intLanes=":J2_1_0 :J2_1_1 :J2_1_2 :J2_4_0 :J2_5_0 :J2_6_0 :J2_6_1 :J2_6_2 :J2_11_0 :J2_11_1 :J2_11_2 :J2_14_0"/>

    <connection from="E0" to="-E1" fromLane="0" toLane="0" via=":J2_0_0" tl="J2" linkIndex="0" dir="r" state="O"/>
    <connection from="E0" to="-E2" fromLane="0" toLane="0" via=":J2_1_0" tl="J2" linkIndex="1" dir="s" state="O"/>
    <connection from="E0" to="-E2" fromLane="1" toLane="1" via=":J2_1_1" tl="J2" linkIndex="2" dir="s" state="O"/>
    <connection from="E0" to="-E2" fromLane="2" toLane="2" via=":J2_1_2" tl="J2" linkIndex="3" dir="s" state="O"/>
    <connection from="E0" to="-E3" fromLane="3" toLane="0" via=":J2_4_0" tl="J2" linkIndex="4" dir="l" state="o"/>
    <connection from="E1" to="-E2" fromLane="0" toLane="0" via=":J2_15_0" tl="J2" linkIndex="15" dir="r" state="o"/>
    <connection from="E1" to="-E3" fromLane="0" toLane="0" via=":J2_16_0" tl="J2" linkIndex="16" dir="s" state="o"/>
    <connection from="E1" to="-E3" fromLane="1" toLane="1" via=":J2_16_1" tl="J2" linkIndex="17" dir="s" state="o"/>
    <connection from="E1" to="-E3" fromLane="2" toLane="2" via=":J2_16_2" tl="J2" linkIndex="18" dir="s" state="o"/>
    <connection from="E1" to="-E0" fromLane="3" toLane="0" via=":J2_19_0" tl="J2" linkIndex="19" dir="l" state="o"/>
    <connection from="E2" to="-E3" fromLane="0" toLane="0" via=":J2_10_0" tl="J2" linkIndex="10" dir="r" state="O"/>
    <connection from="E2" to="-E0" fromLane="0" toLane="0" via=":J2_11_0" tl="J2" linkIndex="11" dir="s" state="O"/>
    <connection from="E2" to="-E0" fromLane="1" toLane="1" via=":J2_11_1" tl="J2" linkIndex="12" dir="s" state="O"/>
    <connection from="E2" to="-E0" fromLane="2" toLane="2" via=":J2_11_2" tl="J2" linkIndex="13" dir="s" state="O"/>
    <connection from="E2" to="-E1" fromLane="3" toLane="0" via=":J2_14_0" tl="J2" linkIndex="14" dir="l" state="o"/>
    <connection from="E3" to="-E0" fromLane="0" toLane="0" via=":J2_5_0" tl="J2" linkIndex="5" dir="r" state="o"/>
    <connection from="E3" to="-E1" fromLane="0" toLane="0" via=":J2_6_0" tl="J2" linkIndex="6" dir="s" state="o"/>
    <connection from="E3" to="-E1" fromLane="1" toLane="1" via=":J2_6_1" tl="J2" linkIndex="7" dir="s" state="o"/>
    <connection from="E3" to="-E1" fromLane="2" toLane="2" via=":J2_6_2" tl="J2" linkIndex="8" dir="s" state="o"/>
    <connection from="E3" to="-E2" fromLane="3" toLane="0" via=":J2_9_0" tl="J2" linkIndex="9" dir="l" state="o"/>

    <connection from=":J2_0" to="-E1" fromLane="0" toLane="0" dir="r" state="M"/>
    <connection from=":J2_1" to="-E2" fromLane="0" toLane="0" dir="s" state="M"/>
    <connection from=":J2_1" to="-E2" fromLane="1" toLane="1" dir="s" state="M"/>
    <connection from=":J2_1" to="-E2" fromLane="2" toLane="2" dir="s" state="M"/>
    <connection from=":J2_4" to="-E3" fromLane="0" toLane="0" via=":J2_20_0" dir="l" state="m"/>
    <connection from=":J2_20" to="-E3" fromLane="0" toLane="0" dir="l" state="M"/>
    <connection from=":J2_5" to="-E0" fromLane="0" toLane="0" dir="r" state="M"/>
    <connection from=":J2_6" to="-E1" fromLane="0" toLane="0" dir="s" state="M"/>
    <connection from=":J2_6" to="-E1" fromLane="1" toLane="1" dir="s" state="M"/>
    <connection from=":J2_6" to="-E1" fromLane="2" toLane="2" dir="s" state="M"/>
    <connection from=":J2_9" to="-E2" fromLane="0" toLane="0" via=":J2_21_0" dir="l" state="m"/>
    <connection from=":J2_21" to="-E2" fromLane="0" toLane="0" dir="l" state="M"/>
    <connection from=":J2_10" to="-E3" fromLane="0" toLane="0" dir="r" state="M"/>
    <connection from=":J2_11" to="-E0" fromLane="0" toLane="0" dir="s" state="M"/>
    <connection from=":J2_11" to="-E0" fromLane="1" toLane="1" dir="s" state="M"/>
    <connection from=":J2_11" to="-E0" fromLane="2" toLane="2" dir="s" state="M"/>
    <connection from=":J2_14" to="-E1" fromLane="0" toLane="0" via=":J2_22_0" dir="l" state="m"/>
    <connection from=":J2_22" to="-E1" fromLane="0" toLane="0" dir="l" state="M"/>
    <connection from=":J2_15" to="-E2" fromLane="0" toLane="0" dir="r" state="M"/>
    <connection from=":J2_16" to="-E3" fromLane="0" toLane="0" dir="s" state="M"/>
    <connection from=":J2_16" to="-E3" fromLane="1" toLane="1" dir="s" state="M"/>
    <connection from=":J2_16" to="-E3" fromLane="2" toLane="2" dir="s" state="M"/>
    <connection from=":J2_19" to="-E0" fromLane="0" toLane="0" via=":J2_23_0" dir="l" state="m"/>
    <connection from=":J2_23" to="-E0" fromLane="0" toLane="0" dir="l" state="M"/>

</net>
