<?xml version="1.0" encoding="UTF-8"?>

<!-- generated on 2023-03-21 12:10:28 by Eclipse SUMO netedit Version 1.12.0
<configuration xmlns:xsi="http://www.w3.org/2001/XMLSchema-instance" xsi:noNamespaceSchemaLocation="http://sumo.dlr.de/xsd/netconvertConfiguration.xsd">

    <output>
        <output-file value="/home/lucas/Projets/sumo_structure/sumo_files/net.net.xml"/>
    </output>

    <processing>
        <offset.disable-normalization value="true"/>
    </processing>

    <junctions>
        <no-turnarounds value="true"/>
    </junctions>

    <report>
        <aggregate-warnings value="5"/>
    </report>

</configuration>
-->

<net version="1.9" junctionCornerDetail="5" limitTurnSpeed="5.50" xmlns:xsi="http://www.w3.org/2001/XMLSchema-instance" xsi:noNamespaceSchemaLocation="http://sumo.dlr.de/xsd/net_file.xsd">

    <location netOffset="0.00,0.00" convBoundary="0.00,-100.00,200.00,100.00" origBoundary="10000000000.00,10000000000.00,-10000000000.00,-10000000000.00" projParameter="!"/>

    <edge id=":J0_0" function="internal">
        <lane id=":J0_0_0" index="0" allow="bicycle" speed="5.01" length="5.64" width="1.00" shape="96.30,7.20 96.08,5.67 95.42,4.58 94.33,3.92 92.80,3.70"/>
    </edge>
    <edge id=":J0_1" function="internal">
        <lane id=":J0_1_0" index="0" allow="bicycle" speed="13.89" length="14.40" width="1.00" shape="96.30,7.20 96.30,-7.20"/>
    </edge>
    <edge id=":J0_2" function="internal">
        <lane id=":J0_2_0" index="0" allow="bicycle" speed="8.67" length="4.82" width="1.00" shape="96.30,7.20 96.98,2.43"/>
    </edge>
    <edge id=":J0_3" function="internal">
        <lane id=":J0_3_0" index="0" speed="6.51" length="1.48" shape="98.40,7.20 98.19,5.74"/>
    </edge>
    <edge id=":J0_4" function="internal">
        <lane id=":J0_4_0" index="0" speed="13.89" length="14.40" shape="98.40,7.20 98.40,-7.20"/>
    </edge>
    <edge id=":J0_5" function="internal">
        <lane id=":J0_5_0" index="0" speed="8.00" length="4.07" shape="98.40,7.20 98.95,3.35 99.04,3.20"/>
    </edge>
    <edge id=":J0_24" function="internal">
        <lane id=":J0_24_0" index="0" allow="bicycle" speed="8.67" length="12.76" width="1.00" shape="96.98,2.43 99.03,-0.97 102.43,-3.02 107.20,-3.70"/>
    </edge>
    <edge id=":J0_25" function="internal">
        <lane id=":J0_25_0" index="0" speed="6.51" length="7.55" shape="98.19,5.74 98.05,4.75 97.00,3.00 95.25,1.95 92.80,1.60"/>
    </edge>
    <edge id=":J0_26" function="internal">
        <lane id=":J0_26_0" index="0" speed="8.00" length="10.13" shape="99.04,3.20 100.60,0.60 103.35,-1.05 107.20,-1.60"/>
    </edge>
    <edge id=":J0_6" function="internal">
        <lane id=":J0_6_0" index="0" allow="bicycle" speed="5.01" length="5.64" width="1.00" shape="107.20,3.70 105.67,3.92 104.58,4.58 103.92,5.67 103.70,7.20"/>
    </edge>
    <edge id=":J0_7" function="internal">
        <lane id=":J0_7_0" index="0" allow="bicycle" speed="13.89" length="14.40" width="1.00" shape="107.20,3.70 92.80,3.70"/>
    </edge>
    <edge id=":J0_8" function="internal">
        <lane id=":J0_8_0" index="0" allow="bicycle" speed="8.67" length="9.17" width="1.00" shape="107.20,3.70 102.43,3.02 99.03,0.97 98.83,0.64"/>
    </edge>
    <edge id=":J0_9" function="internal">
        <lane id=":J0_9_0" index="0" speed="6.51" length="1.48" shape="107.20,1.60 105.74,1.81"/>
    </edge>
    <edge id=":J0_10" function="internal">
        <lane id=":J0_10_0" index="0" speed="13.89" length="14.40" shape="107.20,1.60 92.80,1.60"/>
    </edge>
    <edge id=":J0_11" function="internal">
        <lane id=":J0_11_0" index="0" speed="8.00" length="4.07" shape="107.20,1.60 103.35,1.05 103.20,0.96"/>
    </edge>
    <edge id=":J0_27" function="internal">
        <lane id=":J0_27_0" index="0" allow="bicycle" speed="8.67" length="8.40" width="1.00" shape="98.83,0.64 96.98,-2.43 96.30,-7.20"/>
    </edge>
    <edge id=":J0_28" function="internal">
        <lane id=":J0_28_0" index="0" speed="6.51" length="7.55" shape="105.74,1.81 104.75,1.95 103.00,3.00 101.95,4.75 101.60,7.20"/>
    </edge>
    <edge id=":J0_29" function="internal">
        <lane id=":J0_29_0" index="0" speed="8.00" length="10.13" shape="103.20,0.96 100.60,-0.60 98.95,-3.35 98.40,-7.20"/>
    </edge>
    <edge id=":J0_12" function="internal">
        <lane id=":J0_12_0" index="0" allow="bicycle" speed="5.01" length="5.64" width="1.00" shape="103.70,-7.20 103.92,-5.67 104.58,-4.58 105.67,-3.92 107.20,-3.70"/>
    </edge>
    <edge id=":J0_13" function="internal">
        <lane id=":J0_13_0" index="0" allow="bicycle" speed="13.89" length="14.40" width="1.00" shape="103.70,-7.20 103.70,7.20"/>
    </edge>
    <edge id=":J0_14" function="internal">
        <lane id=":J0_14_0" index="0" allow="bicycle" speed="8.67" length="4.82" width="1.00" shape="103.70,-7.20 103.02,-2.43"/>
    </edge>
    <edge id=":J0_15" function="internal">
        <lane id=":J0_15_0" index="0" speed="6.51" length="1.48" shape="101.60,-7.20 101.81,-5.74"/>
    </edge>
    <edge id=":J0_16" function="internal">
        <lane id=":J0_16_0" index="0" speed="13.89" length="14.40" shape="101.60,-7.20 101.60,7.20"/>
    </edge>
    <edge id=":J0_17" function="internal">
        <lane id=":J0_17_0" index="0" speed="8.00" length="4.07" shape="101.60,-7.20 101.05,-3.35 100.96,-3.20"/>
    </edge>
    <edge id=":J0_30" function="internal">
        <lane id=":J0_30_0" index="0" allow="bicycle" speed="8.67" length="12.76" width="1.00" shape="103.02,-2.43 100.97,0.97 97.57,3.02 92.80,3.70"/>
    </edge>
    <edge id=":J0_31" function="internal">
        <lane id=":J0_31_0" index="0" speed="6.51" length="7.55" shape="101.81,-5.74 101.95,-4.75 103.00,-3.00 104.75,-1.95 107.20,-1.60"/>
    </edge>
    <edge id=":J0_32" function="internal">
        <lane id=":J0_32_0" index="0" speed="8.00" length="10.13" shape="100.96,-3.20 99.40,-0.60 96.65,1.05 92.80,1.60"/>
    </edge>
    <edge id=":J0_18" function="internal">
        <lane id=":J0_18_0" index="0" allow="bicycle" speed="5.01" length="5.64" width="1.00" shape="92.80,-3.70 94.33,-3.92 95.42,-4.58 96.08,-5.67 96.30,-7.20"/>
    </edge>
    <edge id=":J0_19" function="internal">
        <lane id=":J0_19_0" index="0" allow="bicycle" speed="13.89" length="14.40" width="1.00" shape="92.80,-3.70 107.20,-3.70"/>
    </edge>
    <edge id=":J0_20" function="internal">
        <lane id=":J0_20_0" index="0" allow="bicycle" speed="8.67" length="9.17" width="1.00" shape="92.80,-3.70 97.57,-3.02 100.98,-0.97 101.17,-0.64"/>
    </edge>
    <edge id=":J0_21" function="internal">
        <lane id=":J0_21_0" index="0" speed="6.51" length="1.48" shape="92.80,-1.60 94.26,-1.81"/>
    </edge>
    <edge id=":J0_22" function="internal">
        <lane id=":J0_22_0" index="0" speed="13.89" length="14.40" shape="92.80,-1.60 107.20,-1.60"/>
    </edge>
    <edge id=":J0_23" function="internal">
        <lane id=":J0_23_0" index="0" speed="8.00" length="4.07" shape="92.80,-1.60 96.65,-1.05 96.80,-0.96"/>
    </edge>
    <edge id=":J0_33" function="internal">
        <lane id=":J0_33_0" index="0" allow="bicycle" speed="8.67" length="8.40" width="1.00" shape="101.17,-0.64 103.02,2.43 103.70,7.20"/>
    </edge>
    <edge id=":J0_34" function="internal">
        <lane id=":J0_34_0" index="0" speed="6.51" length="7.55" shape="94.26,-1.81 95.25,-1.95 97.00,-3.00 98.05,-4.75 98.40,-7.20"/>
    </edge>
    <edge id=":J0_35" function="internal">
        <lane id=":J0_35_0" index="0" speed="8.00" length="10.13" shape="96.80,-0.96 99.40,0.60 101.05,3.35 101.60,7.20"/>
    </edge>

    <edge id="-E0" from="J0" to="J1" priority="-1">
        <lane id="-E0_0" index="0" allow="bicycle" speed="13.89" length="92.80" width="1.00" shape="103.70,7.20 103.70,100.00"/>
        <lane id="-E0_1" index="1" speed="13.89" length="92.80" shape="101.60,7.20 101.60,100.00"/>
    </edge>
    <edge id="-E1" from="J0" to="J2" priority="-1">
        <lane id="-E1_0" index="0" allow="bicycle" speed="13.89" length="92.80" width="1.00" shape="96.30,-7.20 96.30,-100.00"/>
        <lane id="-E1_1" index="1" speed="13.89" length="92.80" shape="98.40,-7.20 98.40,-100.00"/>
    </edge>
    <edge id="-E2" from="J0" to="J3" priority="-1">
        <lane id="-E2_0" index="0" allow="bicycle" speed="13.89" length="92.80" width="1.00" shape="92.80,3.70 0.00,3.70"/>
        <lane id="-E2_1" index="1" speed="13.89" length="92.80" shape="92.80,1.60 0.00,1.60"/>
    </edge>
    <edge id="-E3" from="J0" to="J4" priority="-1">
        <lane id="-E3_0" index="0" allow="bicycle" speed="13.89" length="92.80" width="1.00" shape="107.20,-3.70 200.00,-3.70"/>
        <lane id="-E3_1" index="1" speed="13.89" length="92.80" shape="107.20,-1.60 200.00,-1.60"/>
    </edge>
    <edge id="E0" from="J1" to="J0" priority="-1">
        <lane id="E0_0" index="0" allow="bicycle" speed="13.89" length="92.80" width="1.00" shape="96.30,100.00 96.30,7.20"/>
        <lane id="E0_1" index="1" speed="13.89" length="92.80" shape="98.40,100.00 98.40,7.20"/>
    </edge>
    <edge id="E1" from="J2" to="J0" priority="-1">
        <lane id="E1_0" index="0" allow="bicycle" speed="13.89" length="92.80" width="1.00" shape="103.70,-100.00 103.70,-7.20"/>
        <lane id="E1_1" index="1" speed="13.89" length="92.80" shape="101.60,-100.00 101.60,-7.20"/>
    </edge>
    <edge id="E2" from="J3" to="J0" priority="-1">
        <lane id="E2_0" index="0" allow="bicycle" speed="13.89" length="92.80" width="1.00" shape="0.00,-3.70 92.80,-3.70"/>
        <lane id="E2_1" index="1" speed="13.89" length="92.80" shape="0.00,-1.60 92.80,-1.60"/>
    </edge>
    <edge id="E3" from="J4" to="J0" priority="-1">
        <lane id="E3_0" index="0" allow="bicycle" speed="13.89" length="92.80" width="1.00" shape="200.00,3.70 107.20,3.70"/>
        <lane id="E3_1" index="1" speed="13.89" length="92.80" shape="200.00,1.60 107.20,1.60"/>
    </edge>

    <tlLogic id="J0" type="static" programID="0" offset="0">
        <phase duration="42" state="GGggGgrrrrrrGGggGgrrrrrr"/>
        <phase duration="3"  state="yyyyyyrrrrrryyyyyyrrrrrr"/>
        <phase duration="42" state="rrrrrrGGggGgrrrrrrGGggGg"/>
        <phase duration="3"  state="rrrrrryyyyyyrrrrrryyyyyy"/>
    </tlLogic>

    <junction id="J0" type="traffic_light" x="100.00" y="0.00" incLanes="E0_0 E0_1 E3_0 E3_1 E1_0 E1_1 E2_0 E2_1" intLanes=":J0_0_0 :J0_1_0 :J0_24_0 :J0_25_0 :J0_4_0 :J0_26_0 :J0_6_0 :J0_7_0 :J0_27_0 :J0_28_0 :J0_10_0 :J0_29_0 :J0_12_0 :J0_13_0 :J0_30_0 :J0_31_0 :J0_16_0 :J0_32_0 :J0_18_0 :J0_19_0 :J0_33_0 :J0_34_0 :J0_22_0 :J0_35_0" shape="95.80,7.20 104.20,7.20 104.53,5.53 104.95,4.95 105.53,4.53 106.28,4.28 107.20,4.20 107.20,-4.20 105.53,-4.53 104.95,-4.95 104.53,-5.53 104.28,-6.28 104.20,-7.20 95.80,-7.20 95.47,-5.53 95.05,-4.95 94.47,-4.53 93.72,-4.28 92.80,-4.20 92.80,4.20 94.47,4.53 95.05,4.95 95.47,5.53 95.72,6.28">
        <request index="0"  response="000000000000000000000000" foes="000000000100000010000000" cont="0"/>
        <request index="1"  response="101100000000000100000000" foes="111111100100010110001000" cont="0"/>
        <request index="2"  response="100100111111100100010000" foes="110110111111110110011000" cont="1"/>
        <request index="3"  response="000000000000000000000110" foes="000000100100010010000110" cont="1"/>
        <request index="4"  response="101100000000100100000000" foes="111110100100110110000100" cont="0"/>
        <request index="5"  response="100100111110100100000000" foes="110100111110110110000000" cont="1"/>
        <request index="6"  response="000000000010000000000000" foes="000100000010000000000000" cont="0"/>
        <request index="7"  response="000000010110000000111111" foes="100100010110001000111111" cont="0"/>
        <request index="8"  response="011011110110010000110110" foes="111111110110011000110110" cont="1"/>
        <request index="9"  response="000000010010000110000000" foes="100100010010000110000000" cont="1"/>
        <request index="10" response="000000110110000000111110" foes="100100110110000100111110" cont="0"/>
        <request index="11" response="011010110110000000110100" foes="111110110110000000110100" cont="1"/>
        <request index="12" response="000000000000000000000000" foes="000010000000000000000100" cont="0"/>
        <request index="13" response="000100000000101100000000" foes="010110001000111111100100" cont="0"/>
        <request index="14" response="100100010000100100011011" foes="110110011000110110111111" cont="1"/>
        <request index="15" response="000000000110000000000000" foes="010010000110000000100100" cont="1"/>
        <request index="16" response="100100000000101100000000" foes="110110000100111110100100" cont="0"/>
        <request index="17" response="100100000000100100011010" foes="110110000000110100111110" cont="1"/>
        <request index="18" response="000000000000000000000010" foes="000000000000000100000010" cont="0"/>
        <request index="19" response="000000111111000000010110" foes="001000111111100100010110" cont="0"/>
        <request index="20" response="010000110110111111110110" foes="011000110110111111110110" cont="1"/>
        <request index="21" response="000110000000000000010010" foes="000110000000100100010010" cont="1"/>
        <request index="22" response="000000111110000000110110" foes="000100111110100100110110" cont="0"/>
        <request index="23" response="000000110100111110110110" foes="000000110100111110110110" cont="1"/>
    </junction>
    <junction id="J1" type="dead_end" x="100.00" y="100.00" incLanes="-E0_0 -E0_1" intLanes="" shape="100.00,100.00 104.20,100.00 100.00,100.00"/>
    <junction id="J2" type="dead_end" x="100.00" y="-100.00" incLanes="-E1_0 -E1_1" intLanes="" shape="100.00,-100.00 95.80,-100.00 100.00,-100.00"/>
    <junction id="J3" type="dead_end" x="0.00" y="0.00" incLanes="-E2_0 -E2_1" intLanes="" shape="0.00,0.00 0.00,4.20 0.00,0.00"/>
    <junction id="J4" type="dead_end" x="200.00" y="0.00" incLanes="-E3_0 -E3_1" intLanes="" shape="200.00,0.00 200.00,-4.20 200.00,0.00"/>

    <junction id=":J0_24_0" type="internal" x="96.98" y="2.43" incLanes=":J0_2_0 :J0_14_0 :J0_17_0 E1_0 E1_1" intLanes=":J0_30_0 :J0_32_0 :J0_4_0 :J0_7_0 :J0_8_0 :J0_10_0 :J0_11_0 :J0_12_0 :J0_13_0 :J0_14_0 :J0_15_0 :J0_16_0 :J0_17_0 :J0_19_0 :J0_20_0 :J0_22_0 :J0_23_0"/>
    <junction id=":J0_25_0" type="internal" x="98.19" y="5.74" incLanes=":J0_3_0 E0_0" intLanes=":J0_1_0 :J0_2_0 :J0_7_0 :J0_10_0 :J0_14_0 :J0_17_0"/>
    <junction id=":J0_26_0" type="internal" x="99.04" y="3.20" incLanes=":J0_5_0 :J0_14_0 E1_0 E1_1" intLanes=":J0_30_0 :J0_7_0 :J0_8_0 :J0_10_0 :J0_11_0 :J0_12_0 :J0_13_0 :J0_14_0 :J0_15_0 :J0_16_0 :J0_19_0 :J0_20_0 :J0_22_0 :J0_23_0"/>
    <junction id=":J0_27_0" type="internal" x="98.83" y="0.64" incLanes=":J0_8_0 E2_0 E2_1" intLanes=":J0_1_0 :J0_2_0 :J0_4_0 :J0_5_0 :J0_10_0 :J0_13_0 :J0_14_0 :J0_16_0 :J0_17_0 :J0_18_0 :J0_19_0 :J0_20_0 :J0_21_0 :J0_22_0 :J0_23_0"/>
    <junction id=":J0_28_0" type="internal" x="105.74" y="1.81" incLanes=":J0_9_0 E3_0" intLanes=":J0_7_0 :J0_8_0 :J0_13_0 :J0_16_0 :J0_20_0 :J0_23_0"/>
    <junction id=":J0_29_0" type="internal" x="103.20" y="0.96" incLanes=":J0_11_0 E2_0 E2_1" intLanes=":J0_1_0 :J0_2_0 :J0_4_0 :J0_5_0 :J0_13_0 :J0_14_0 :J0_16_0 :J0_17_0 :J0_18_0 :J0_19_0 :J0_20_0 :J0_21_0 :J0_22_0"/>
    <junction id=":J0_30_0" type="internal" x="103.02" y="-2.43" incLanes=":J0_14_0 E0_0 E0_1" intLanes=":J0_0_0 :J0_1_0 :J0_2_0 :J0_3_0 :J0_4_0 :J0_5_0 :J0_7_0 :J0_8_0 :J0_10_0 :J0_11_0 :J0_16_0 :J0_19_0 :J0_20_0 :J0_22_0 :J0_23_0"/>
    <junction id=":J0_31_0" type="internal" x="101.81" y="-5.74" incLanes=":J0_15_0 E1_0" intLanes=":J0_2_0 :J0_5_0 :J0_13_0 :J0_14_0 :J0_19_0 :J0_22_0"/>
    <junction id=":J0_32_0" type="internal" x="100.96" y="-3.20" incLanes=":J0_17_0 E0_0 E0_1" intLanes=":J0_0_0 :J0_1_0 :J0_2_0 :J0_3_0 :J0_4_0 :J0_7_0 :J0_8_0 :J0_10_0 :J0_11_0 :J0_19_0 :J0_20_0 :J0_22_0 :J0_23_0"/>
    <junction id=":J0_33_0" type="internal" x="101.17" y="-0.64" incLanes=":J0_20_0 E3_0 E3_1" intLanes=":J0_1_0 :J0_2_0 :J0_4_0 :J0_5_0 :J0_6_0 :J0_7_0 :J0_8_0 :J0_9_0 :J0_10_0 :J0_11_0 :J0_13_0 :J0_14_0 :J0_16_0 :J0_17_0 :J0_22_0"/>
    <junction id=":J0_34_0" type="internal" x="94.26" y="-1.81" incLanes=":J0_21_0 E2_0" intLanes=":J0_1_0 :J0_4_0 :J0_8_0 :J0_11_0 :J0_19_0 :J0_20_0"/>
    <junction id=":J0_35_0" type="internal" x="96.80" y="-0.96" incLanes=":J0_23_0 E3_0 E3_1" intLanes=":J0_1_0 :J0_2_0 :J0_4_0 :J0_5_0 :J0_6_0 :J0_7_0 :J0_8_0 :J0_9_0 :J0_10_0 :J0_13_0 :J0_14_0 :J0_16_0 :J0_17_0"/>

    <connection from="E0" to="-E2" fromLane="0" toLane="0" via=":J0_0_0" tl="J0" linkIndex="0" dir="r" state="O"/>
    <connection from="E0" to="-E1" fromLane="0" toLane="0" via=":J0_1_0" tl="J0" linkIndex="1" dir="s" state="O"/>
    <connection from="E0" to="-E3" fromLane="0" toLane="0" via=":J0_2_0" tl="J0" linkIndex="2" dir="l" state="o"/>
    <connection from="E0" to="-E2" fromLane="1" toLane="1" via=":J0_3_0" tl="J0" linkIndex="3" dir="r" state="o"/>
    <connection from="E0" to="-E1" fromLane="1" toLane="1" via=":J0_4_0" tl="J0" linkIndex="4" dir="s" state="O"/>
    <connection from="E0" to="-E3" fromLane="1" toLane="1" via=":J0_5_0" tl="J0" linkIndex="5" dir="l" state="o"/>
    <connection from="E1" to="-E3" fromLane="0" toLane="0" via=":J0_12_0" tl="J0" linkIndex="12" dir="r" state="O"/>
    <connection from="E1" to="-E0" fromLane="0" toLane="0" via=":J0_13_0" tl="J0" linkIndex="13" dir="s" state="O"/>
    <connection from="E1" to="-E2" fromLane="0" toLane="0" via=":J0_14_0" tl="J0" linkIndex="14" dir="l" state="o"/>
    <connection from="E1" to="-E3" fromLane="1" toLane="1" via=":J0_15_0" tl="J0" linkIndex="15" dir="r" state="o"/>
    <connection from="E1" to="-E0" fromLane="1" toLane="1" via=":J0_16_0" tl="J0" linkIndex="16" dir="s" state="O"/>
    <connection from="E1" to="-E2" fromLane="1" toLane="1" via=":J0_17_0" tl="J0" linkIndex="17" dir="l" state="o"/>
    <connection from="E2" to="-E1" fromLane="0" toLane="0" via=":J0_18_0" tl="J0" linkIndex="18" dir="r" state="o"/>
    <connection from="E2" to="-E3" fromLane="0" toLane="0" via=":J0_19_0" tl="J0" linkIndex="19" dir="s" state="o"/>
    <connection from="E2" to="-E0" fromLane="0" toLane="0" via=":J0_20_0" tl="J0" linkIndex="20" dir="l" state="o"/>
    <connection from="E2" to="-E1" fromLane="1" toLane="1" via=":J0_21_0" tl="J0" linkIndex="21" dir="r" state="o"/>
    <connection from="E2" to="-E3" fromLane="1" toLane="1" via=":J0_22_0" tl="J0" linkIndex="22" dir="s" state="o"/>
    <connection from="E2" to="-E0" fromLane="1" toLane="1" via=":J0_23_0" tl="J0" linkIndex="23" dir="l" state="o"/>
    <connection from="E3" to="-E0" fromLane="0" toLane="0" via=":J0_6_0" tl="J0" linkIndex="6" dir="r" state="o"/>
    <connection from="E3" to="-E2" fromLane="0" toLane="0" via=":J0_7_0" tl="J0" linkIndex="7" dir="s" state="o"/>
    <connection from="E3" to="-E1" fromLane="0" toLane="0" via=":J0_8_0" tl="J0" linkIndex="8" dir="l" state="o"/>
    <connection from="E3" to="-E0" fromLane="1" toLane="1" via=":J0_9_0" tl="J0" linkIndex="9" dir="r" state="o"/>
    <connection from="E3" to="-E2" fromLane="1" toLane="1" via=":J0_10_0" tl="J0" linkIndex="10" dir="s" state="o"/>
    <connection from="E3" to="-E1" fromLane="1" toLane="1" via=":J0_11_0" tl="J0" linkIndex="11" dir="l" state="o"/>

    <connection from=":J0_0" to="-E2" fromLane="0" toLane="0" dir="r" state="M"/>
    <connection from=":J0_1" to="-E1" fromLane="0" toLane="0" dir="s" state="M"/>
    <connection from=":J0_2" to="-E3" fromLane="0" toLane="0" via=":J0_24_0" dir="l" state="m"/>
    <connection from=":J0_24" to="-E3" fromLane="0" toLane="0" dir="l" state="M"/>
    <connection from=":J0_3" to="-E2" fromLane="0" toLane="1" via=":J0_25_0" dir="r" state="m"/>
    <connection from=":J0_25" to="-E2" fromLane="0" toLane="1" dir="r" state="M"/>
    <connection from=":J0_4" to="-E1" fromLane="0" toLane="1" dir="s" state="M"/>
    <connection from=":J0_5" to="-E3" fromLane="0" toLane="1" via=":J0_26_0" dir="l" state="m"/>
    <connection from=":J0_26" to="-E3" fromLane="0" toLane="1" dir="l" state="M"/>
    <connection from=":J0_6" to="-E0" fromLane="0" toLane="0" dir="r" state="M"/>
    <connection from=":J0_7" to="-E2" fromLane="0" toLane="0" dir="s" state="M"/>
    <connection from=":J0_8" to="-E1" fromLane="0" toLane="0" via=":J0_27_0" dir="l" state="m"/>
    <connection from=":J0_27" to="-E1" fromLane="0" toLane="0" dir="l" state="M"/>
    <connection from=":J0_9" to="-E0" fromLane="0" toLane="1" via=":J0_28_0" dir="r" state="m"/>
    <connection from=":J0_28" to="-E0" fromLane="0" toLane="1" dir="r" state="M"/>
    <connection from=":J0_10" to="-E2" fromLane="0" toLane="1" dir="s" state="M"/>
    <connection from=":J0_11" to="-E1" fromLane="0" toLane="1" via=":J0_29_0" dir="l" state="m"/>
    <connection from=":J0_29" to="-E1" fromLane="0" toLane="1" dir="l" state="M"/>
    <connection from=":J0_12" to="-E3" fromLane="0" toLane="0" dir="r" state="M"/>
    <connection from=":J0_13" to="-E0" fromLane="0" toLane="0" dir="s" state="M"/>
    <connection from=":J0_14" to="-E2" fromLane="0" toLane="0" via=":J0_30_0" dir="l" state="m"/>
    <connection from=":J0_30" to="-E2" fromLane="0" toLane="0" dir="l" state="M"/>
    <connection from=":J0_15" to="-E3" fromLane="0" toLane="1" via=":J0_31_0" dir="r" state="m"/>
    <connection from=":J0_31" to="-E3" fromLane="0" toLane="1" dir="r" state="M"/>
    <connection from=":J0_16" to="-E0" fromLane="0" toLane="1" dir="s" state="M"/>
    <connection from=":J0_17" to="-E2" fromLane="0" toLane="1" via=":J0_32_0" dir="l" state="m"/>
    <connection from=":J0_32" to="-E2" fromLane="0" toLane="1" dir="l" state="M"/>
    <connection from=":J0_18" to="-E1" fromLane="0" toLane="0" dir="r" state="M"/>
    <connection from=":J0_19" to="-E3" fromLane="0" toLane="0" dir="s" state="M"/>
    <connection from=":J0_20" to="-E0" fromLane="0" toLane="0" via=":J0_33_0" dir="l" state="m"/>
    <connection from=":J0_33" to="-E0" fromLane="0" toLane="0" dir="l" state="M"/>
    <connection from=":J0_21" to="-E1" fromLane="0" toLane="1" via=":J0_34_0" dir="r" state="m"/>
    <connection from=":J0_34" to="-E1" fromLane="0" toLane="1" dir="r" state="M"/>
    <connection from=":J0_22" to="-E3" fromLane="0" toLane="1" dir="s" state="M"/>
    <connection from=":J0_23" to="-E0" fromLane="0" toLane="1" via=":J0_35_0" dir="l" state="m"/>
    <connection from=":J0_35" to="-E0" fromLane="0" toLane="1" dir="l" state="M"/>

</net>
