<?xml version="1.0" encoding="UTF-8"?>

<!-- generated on 2023-05-09 16:07:14 by Eclipse SUMO netedit Version 1.12.0
<configuration xmlns:xsi="http://www.w3.org/2001/XMLSchema-instance" xsi:noNamespaceSchemaLocation="http://sumo.dlr.de/xsd/netconvertConfiguration.xsd">

    <input>
        <sumo-net-file value="/home/lucas/Projets/sumo_structure/sumo_files/net1.net.xml"/>
    </input>

    <output>
        <output-file value="/home/lucas/Projets/sumo_structure/sumo_files/net1.net.xml"/>
    </output>

    <processing>
        <geometry.min-radius.fix.railways value="false"/>
        <geometry.max-grade.fix value="false"/>
        <offset.disable-normalization value="true"/>
        <lefthand value="false"/>
    </processing>

    <junctions>
        <no-turnarounds value="true"/>
        <junctions.corner-detail value="5"/>
        <junctions.limit-turn-speed value="5.5"/>
        <rectangular-lane-cut value="false"/>
    </junctions>

    <pedestrian>
        <walkingareas value="false"/>
    </pedestrian>

    <report>
        <aggregate-warnings value="5"/>
    </report>

</configuration>
-->

<net version="1.9" junctionCornerDetail="5" limitTurnSpeed="5.50" xmlns:xsi="http://www.w3.org/2001/XMLSchema-instance" xsi:noNamespaceSchemaLocation="http://sumo.dlr.de/xsd/net_file.xsd">

    <location netOffset="0.00,0.00" convBoundary="-100.00,0.00,100.00,200.00" origBoundary="-10000000000.00,-10000000000.00,10000000000.00,10000000000.00" projParameter="!"/>

    <edge id=":J2_0" function="internal">
        <lane id=":J2_0_0" index="0" speed="6.51" length="9.03" shape="-11.20,116.80 -11.55,114.35 -12.60,112.60 -14.35,111.55 -16.80,111.20"/>
    </edge>
    <edge id=":J2_1" function="internal">
        <lane id=":J2_1_0" index="0" speed="13.89" length="33.60" shape="-11.20,116.80 -11.20,83.20"/>
        <lane id=":J2_1_1" index="1" speed="13.89" length="33.60" shape="-8.00,116.80 -8.00,83.20"/>
        <lane id=":J2_1_2" index="2" speed="13.89" length="33.60" shape="-4.80,116.80 -4.80,83.20"/>
        <lane id=":J2_1_3" index="3" speed="13.89" length="33.60" shape="-1.60,116.80 -1.60,83.20"/>
    </edge>
    <edge id=":J2_5" function="internal">
        <lane id=":J2_5_0" index="0" speed="11.36" length="5.01" shape="-1.60,116.80 -0.89,111.84"/>
    </edge>
    <edge id=":J2_28" function="internal">
        <lane id=":J2_28_0" index="0" speed="11.36" length="24.66" shape="-0.89,111.84 -0.45,108.75 3.00,103.00 8.75,99.55 16.80,98.40"/>
    </edge>
    <edge id=":J2_6" function="internal">
        <lane id=":J2_6_0" index="0" speed="6.51" length="9.03" shape="16.80,111.20 14.35,111.55 12.60,112.60 11.55,114.35 11.20,116.80"/>
        <lane id=":J2_6_1" index="1" speed="8.00" length="14.19" shape="16.80,108.00 12.95,108.55 10.20,110.20 8.55,112.95 8.00,116.80"/>
    </edge>
    <edge id=":J2_8" function="internal">
        <lane id=":J2_8_0" index="0" speed="13.89" length="33.70" shape="16.80,108.00 6.80,108.50 0.00,109.60 -6.80,110.70 -16.80,111.20"/>
        <lane id=":J2_8_1" index="1" speed="13.89" length="33.70" shape="16.80,108.00 -16.80,108.00"/>
        <lane id=":J2_8_2" index="2" speed="13.89" length="33.70" shape="16.80,104.80 -16.80,104.80"/>
        <lane id=":J2_8_3" index="3" speed="13.89" length="33.70" shape="16.80,104.80 6.80,104.30 0.00,103.20 -6.80,102.10 -16.80,101.60"/>
    </edge>
    <edge id=":J2_12" function="internal">
        <lane id=":J2_12_0" index="0" speed="12.28" length="34.84" shape="16.80,104.80 7.35,103.45 0.60,99.40 -3.45,92.65 -4.80,83.20"/>
        <lane id=":J2_12_1" index="1" speed="11.36" length="29.67" shape="16.80,101.60 8.75,100.45 3.00,97.00 -0.45,91.25 -1.60,83.20"/>
    </edge>
    <edge id=":J2_14" function="internal">
        <lane id=":J2_14_0" index="0" speed="6.51" length="9.03" shape="11.20,83.20 11.55,85.65 12.60,87.40 14.35,88.45 16.80,88.80"/>
    </edge>
    <edge id=":J2_15" function="internal">
        <lane id=":J2_15_0" index="0" speed="13.89" length="33.60" shape="11.20,83.20 11.20,116.80"/>
        <lane id=":J2_15_1" index="1" speed="13.89" length="33.60" shape="8.00,83.20 8.00,116.80"/>
        <lane id=":J2_15_2" index="2" speed="13.89" length="33.60" shape="4.80,83.20 4.80,116.80"/>
        <lane id=":J2_15_3" index="3" speed="13.89" length="33.60" shape="1.60,83.20 1.60,116.80"/>
    </edge>
    <edge id=":J2_19" function="internal">
        <lane id=":J2_19_0" index="0" speed="11.36" length="5.01" shape="1.60,83.20 0.89,88.16"/>
    </edge>
    <edge id=":J2_29" function="internal">
        <lane id=":J2_29_0" index="0" speed="11.36" length="24.66" shape="0.89,88.16 0.45,91.25 -3.00,97.00 -8.75,100.45 -16.80,101.60"/>
    </edge>
    <edge id=":J2_20" function="internal">
        <lane id=":J2_20_0" index="0" speed="6.51" length="9.03" shape="-16.80,88.80 -14.35,88.45 -12.60,87.40 -11.55,85.65 -11.20,83.20"/>
        <lane id=":J2_20_1" index="1" speed="8.00" length="14.19" shape="-16.80,92.00 -12.95,91.45 -10.20,89.80 -8.55,87.05 -8.00,83.20"/>
    </edge>
    <edge id=":J2_22" function="internal">
        <lane id=":J2_22_0" index="0" speed="13.89" length="33.70" shape="-16.80,92.00 -6.80,91.50 0.00,90.40 6.80,89.30 16.80,88.80"/>
        <lane id=":J2_22_1" index="1" speed="13.89" length="33.70" shape="-16.80,92.00 16.80,92.00"/>
        <lane id=":J2_22_2" index="2" speed="13.89" length="33.70" shape="-16.80,95.20 16.80,95.20"/>
        <lane id=":J2_22_3" index="3" speed="13.89" length="33.70" shape="-16.80,95.20 -6.80,95.70 0.00,96.80 6.80,97.90 16.80,98.40"/>
    </edge>
    <edge id=":J2_26" function="internal">
        <lane id=":J2_26_0" index="0" speed="12.28" length="34.84" shape="-16.80,95.20 -7.35,96.55 -0.60,100.60 3.45,107.35 4.80,116.80"/>
        <lane id=":J2_26_1" index="1" speed="11.36" length="29.67" shape="-16.80,98.40 -8.75,99.55 -3.00,103.00 0.45,108.75 1.60,116.80"/>
    </edge>

    <edge id="-E0" from="J2" to="J1" priority="-1">
        <lane id="-E0_0" index="0" speed="13.89" length="83.20" shape="11.20,116.80 11.20,200.00"/>
        <lane id="-E0_1" index="1" speed="13.89" length="83.20" shape="8.00,116.80 8.00,200.00"/>
        <lane id="-E0_2" index="2" speed="13.89" length="83.20" shape="4.80,116.80 4.80,200.00"/>
        <lane id="-E0_3" index="3" speed="13.89" length="83.20" shape="1.60,116.80 1.60,200.00"/>
    </edge>
    <edge id="-E1" from="J2" to="J3" priority="-1">
        <lane id="-E1_0" index="0" speed="13.89" length="83.20" shape="-16.80,111.20 -100.00,111.20"/>
        <lane id="-E1_1" index="1" speed="13.89" length="83.20" shape="-16.80,108.00 -100.00,108.00"/>
        <lane id="-E1_2" index="2" speed="13.89" length="83.20" shape="-16.80,104.80 -100.00,104.80"/>
        <lane id="-E1_3" index="3" speed="13.89" length="83.20" shape="-16.80,101.60 -100.00,101.60"/>
    </edge>
    <edge id="-E2" from="J2" to="J4" priority="-1">
        <lane id="-E2_0" index="0" speed="13.89" length="83.20" shape="-11.20,83.20 -11.20,0.00"/>
        <lane id="-E2_1" index="1" speed="13.89" length="83.20" shape="-8.00,83.20 -8.00,0.00"/>
        <lane id="-E2_2" index="2" speed="13.89" length="83.20" shape="-4.80,83.20 -4.80,0.00"/>
        <lane id="-E2_3" index="3" speed="13.89" length="83.20" shape="-1.60,83.20 -1.60,0.00"/>
    </edge>
    <edge id="-E3" from="J2" to="J5" priority="-1">
        <lane id="-E3_0" index="0" speed="13.89" length="83.20" shape="16.80,88.80 100.00,88.80"/>
        <lane id="-E3_1" index="1" speed="13.89" length="83.20" shape="16.80,92.00 100.00,92.00"/>
        <lane id="-E3_2" index="2" speed="13.89" length="83.20" shape="16.80,95.20 100.00,95.20"/>
        <lane id="-E3_3" index="3" speed="13.89" length="83.20" shape="16.80,98.40 100.00,98.40"/>
    </edge>
    <edge id="E0" from="J1" to="J2" priority="-1">
        <lane id="E0_0" index="0" speed="13.89" length="83.20" shape="-11.20,200.00 -11.20,116.80"/>
        <lane id="E0_1" index="1" speed="13.89" length="83.20" shape="-8.00,200.00 -8.00,116.80"/>
        <lane id="E0_2" index="2" speed="13.89" length="83.20" shape="-4.80,200.00 -4.80,116.80"/>
        <lane id="E0_3" index="3" speed="13.89" length="83.20" shape="-1.60,200.00 -1.60,116.80"/>
    </edge>
    <edge id="E1" from="J3" to="J2" priority="-1">
        <lane id="E1_0" index="0" speed="13.89" length="83.20" shape="-100.00,88.80 -16.80,88.80"/>
        <lane id="E1_1" index="1" speed="13.89" length="83.20" shape="-100.00,92.00 -16.80,92.00"/>
        <lane id="E1_2" index="2" speed="13.89" length="83.20" shape="-100.00,95.20 -16.80,95.20"/>
        <lane id="E1_3" index="3" speed="13.89" length="83.20" shape="-100.00,98.40 -16.80,98.40"/>
    </edge>
    <edge id="E2" from="J4" to="J2" priority="-1">
        <lane id="E2_0" index="0" speed="13.89" length="83.20" shape="11.20,0.00 11.20,83.20"/>
        <lane id="E2_1" index="1" speed="13.89" length="83.20" shape="8.00,0.00 8.00,83.20"/>
        <lane id="E2_2" index="2" speed="13.89" length="83.20" shape="4.80,0.00 4.80,83.20"/>
        <lane id="E2_3" index="3" speed="13.89" length="83.20" shape="1.60,0.00 1.60,83.20"/>
    </edge>
    <edge id="E3" from="J5" to="J2" priority="-1">
        <lane id="E3_0" index="0" speed="13.89" length="83.20" shape="100.00,111.20 16.80,111.20"/>
        <lane id="E3_1" index="1" speed="13.89" length="83.20" shape="100.00,108.00 16.80,108.00"/>
        <lane id="E3_2" index="2" speed="13.89" length="83.20" shape="100.00,104.80 16.80,104.80"/>
        <lane id="E3_3" index="3" speed="13.89" length="83.20" shape="100.00,101.60 16.80,101.60"/>
    </edge>

    <junction id="J1" type="dead_end" x="0.00" y="200.00" incLanes="-E0_0 -E0_1 -E0_2 -E0_3" intLanes="" shape="0.00,200.00 12.80,200.00 0.00,200.00"/>
    <junction id="J2" type="priority" x="0.00" y="100.00" incLanes="E0_0 E0_1 E0_2 E0_3 E3_0 E3_1 E3_2 E3_3 E2_0 E2_1 E2_2 E2_3 E1_0 E1_1 E1_2 E1_3" intLanes=":J2_0_0 :J2_1_0 :J2_1_1 :J2_1_2 :J2_1_3 :J2_28_0 :J2_6_0 :J2_6_1 :J2_8_0 :J2_8_1 :J2_8_2 :J2_8_3 :J2_12_0 :J2_12_1 :J2_14_0 :J2_15_0 :J2_15_1 :J2_15_2 :J2_15_3 :J2_29_0 :J2_20_0 :J2_20_1 :J2_22_0 :J2_22_1 :J2_22_2 :J2_22_3 :J2_26_0 :J2_26_1" shape="-12.80,116.80 12.80,116.80 13.24,114.58 13.80,113.80 14.58,113.24 15.58,112.91 16.80,112.80 16.80,87.20 14.58,86.76 13.80,86.20 13.24,85.42 12.91,84.42 12.80,83.20 -12.80,83.20 -13.24,85.42 -13.80,86.20 -14.58,86.76 -15.58,87.09 -16.80,87.20 -16.80,112.80 -14.58,113.24 -13.80,113.80 -13.24,114.58 -12.91,115.58">
        <request index="0"  response="0000000000000000000000000000" foes="0000000000000000111100000000" cont="0"/>
        <request index="1"  response="0000000000000000000000000000" foes="1111111110000011111100000000" cont="0"/>
        <request index="2"  response="0000000000000000000000000000" foes="1111111110000011111100000000" cont="0"/>
        <request index="3"  response="0000000000000000000000000000" foes="1111111110000011111100000000" cont="0"/>
        <request index="4"  response="0000000000000000000000000000" foes="1111111110000011111100000000" cont="0"/>
        <request index="5"  response="0000000001111000000000000000" foes="1111110001111011111100000000" cont="1"/>
        <request index="6"  response="0000000001111000000000000000" foes="0000000001111000000000000000" cont="0"/>
        <request index="7"  response="0000000001111000000000000000" foes="0000000001111000000000000000" cont="0"/>
        <request index="8"  response="0000000011111000000000111111" foes="1100000011111000000000111111" cont="0"/>
        <request index="9"  response="0000000011111000000000111111" foes="1100000011111000000000111111" cont="0"/>
        <request index="10" response="0000000011111000000000111111" foes="1100000011111000000000111111" cont="0"/>
        <request index="11" response="0000000011111000000000111111" foes="1100000011111000000000111111" cont="0"/>
        <request index="12" response="0011110011111000000000111110" foes="0111110011111000000000111110" cont="0"/>
        <request index="13" response="0011110011111000000000111110" foes="0011110011111000000000111110" cont="0"/>
        <request index="14" response="0000000000000000000000000000" foes="0011110000000000000000000000" cont="0"/>
        <request index="15" response="0000000000000000000000000000" foes="1111110000000011111111100000" cont="0"/>
        <request index="16" response="0000000000000000000000000000" foes="1111110000000011111111100000" cont="0"/>
        <request index="17" response="0000000000000000000000000000" foes="1111110000000011111111100000" cont="0"/>
        <request index="18" response="0000000000000000000000000000" foes="1111110000000011111111100000" cont="0"/>
        <request index="19" response="0000000000000000000000011110" foes="1111110000000011111100011110" cont="1"/>
        <request index="20" response="0000000000000000000000011110" foes="0000000000000000000000011110" cont="0"/>
        <request index="21" response="0000000000000000000000011110" foes="0000000000000000000000011110" cont="0"/>
        <request index="22" response="0000000011111100000000111110" foes="0000000011111111000000111110" cont="0"/>
        <request index="23" response="0000000011111100000000111110" foes="0000000011111111000000111110" cont="0"/>
        <request index="24" response="0000000011111100000000111110" foes="0000000011111111000000111110" cont="0"/>
        <request index="25" response="0000000011111100000000111110" foes="0000000011111111000000111110" cont="0"/>
        <request index="26" response="0000000011111001111100111110" foes="0000000011111001111100111110" cont="0"/>
        <request index="27" response="0000000011111000111100111110" foes="0000000011111000111100111110" cont="0"/>
    </junction>
    <junction id="J3" type="dead_end" x="-100.00" y="100.00" incLanes="-E1_0 -E1_1 -E1_2 -E1_3" intLanes="" shape="-100.00,100.00 -100.00,112.80 -100.00,100.00"/>
    <junction id="J4" type="dead_end" x="0.00" y="0.00" incLanes="-E2_0 -E2_1 -E2_2 -E2_3" intLanes="" shape="0.00,0.00 -12.80,0.00 0.00,0.00"/>
    <junction id="J5" type="dead_end" x="100.00" y="100.00" incLanes="-E3_0 -E3_1 -E3_2 -E3_3" intLanes="" shape="100.00,100.00 100.00,87.20 100.00,100.00"/>

    <junction id=":J2_28_0" type="internal" x="-0.89" y="111.84" incLanes=":J2_5_0 E2_0 E2_1 E2_2 E2_3" intLanes=":J2_8_0 :J2_8_1 :J2_8_2 :J2_8_3 :J2_12_0 :J2_12_1 :J2_14_0 :J2_15_0 :J2_15_1 :J2_15_2 :J2_15_3 :J2_22_0 :J2_22_1 :J2_22_2 :J2_22_3 :J2_26_0 :J2_26_1"/>
    <junction id=":J2_29_0" type="internal" x="0.89" y="88.16" incLanes=":J2_19_0 E0_0 E0_1 E0_2 E0_3" intLanes=":J2_0_0 :J2_1_0 :J2_1_1 :J2_1_2 :J2_1_3 :J2_8_0 :J2_8_1 :J2_8_2 :J2_8_3 :J2_12_0 :J2_12_1 :J2_22_0 :J2_22_1 :J2_22_2 :J2_22_3 :J2_26_0 :J2_26_1"/>

    <connection from="E0" to="-E1" fromLane="0" toLane="0" via=":J2_0_0" dir="r" state="M"/>
    <connection from="E0" to="-E2" fromLane="0" toLane="0" via=":J2_1_0" dir="s" state="M"/>
    <connection from="E0" to="-E2" fromLane="1" toLane="1" via=":J2_1_1" dir="s" state="M"/>
    <connection from="E0" to="-E2" fromLane="2" toLane="2" via=":J2_1_2" dir="s" state="M"/>
    <connection from="E0" to="-E2" fromLane="3" toLane="3" via=":J2_1_3" dir="s" state="M"/>
    <connection from="E0" to="-E3" fromLane="3" toLane="3" via=":J2_5_0" dir="l" state="m"/>
    <connection from="E1" to="-E2" fromLane="0" toLane="0" via=":J2_20_0" dir="r" state="m"/>
    <connection from="E1" to="-E2" fromLane="1" toLane="1" via=":J2_20_1" dir="r" state="m"/>
    <connection from="E1" to="-E3" fromLane="1" toLane="0" via=":J2_22_0" dir="s" state="m"/>
    <connection from="E1" to="-E3" fromLane="1" toLane="1" via=":J2_22_1" dir="s" state="m"/>
    <connection from="E1" to="-E3" fromLane="2" toLane="2" via=":J2_22_2" dir="s" state="m"/>
    <connection from="E1" to="-E3" fromLane="2" toLane="3" via=":J2_22_3" dir="s" state="m"/>
    <connection from="E1" to="-E0" fromLane="2" toLane="2" via=":J2_26_0" dir="l" state="m"/>
    <connection from="E1" to="-E0" fromLane="3" toLane="3" via=":J2_26_1" dir="l" state="m"/>
    <connection from="E2" to="-E3" fromLane="0" toLane="0" via=":J2_14_0" dir="r" state="M"/>
    <connection from="E2" to="-E0" fromLane="0" toLane="0" via=":J2_15_0" dir="s" state="M"/>
    <connection from="E2" to="-E0" fromLane="1" toLane="1" via=":J2_15_1" dir="s" state="M"/>
    <connection from="E2" to="-E0" fromLane="2" toLane="2" via=":J2_15_2" dir="s" state="M"/>
    <connection from="E2" to="-E0" fromLane="3" toLane="3" via=":J2_15_3" dir="s" state="M"/>
    <connection from="E2" to="-E1" fromLane="3" toLane="3" via=":J2_19_0" dir="l" state="m"/>
    <connection from="E3" to="-E0" fromLane="0" toLane="0" via=":J2_6_0" dir="r" state="m"/>
    <connection from="E3" to="-E0" fromLane="1" toLane="1" via=":J2_6_1" dir="r" state="m"/>
    <connection from="E3" to="-E1" fromLane="1" toLane="0" via=":J2_8_0" dir="s" state="m"/>
    <connection from="E3" to="-E1" fromLane="1" toLane="1" via=":J2_8_1" dir="s" state="m"/>
    <connection from="E3" to="-E1" fromLane="2" toLane="2" via=":J2_8_2" dir="s" state="m"/>
    <connection from="E3" to="-E1" fromLane="2" toLane="3" via=":J2_8_3" dir="s" state="m"/>
    <connection from="E3" to="-E2" fromLane="2" toLane="2" via=":J2_12_0" dir="l" state="m"/>
    <connection from="E3" to="-E2" fromLane="3" toLane="3" via=":J2_12_1" dir="l" state="m"/>

    <connection from=":J2_0" to="-E1" fromLane="0" toLane="0" dir="r" state="M"/>
    <connection from=":J2_1" to="-E2" fromLane="0" toLane="0" dir="s" state="M"/>
    <connection from=":J2_1" to="-E2" fromLane="1" toLane="1" dir="s" state="M"/>
    <connection from=":J2_1" to="-E2" fromLane="2" toLane="2" dir="s" state="M"/>
    <connection from=":J2_1" to="-E2" fromLane="3" toLane="3" dir="s" state="M"/>
    <connection from=":J2_5" to="-E3" fromLane="0" toLane="3" via=":J2_28_0" dir="l" state="m"/>
    <connection from=":J2_28" to="-E3" fromLane="0" toLane="3" dir="l" state="M"/>
    <connection from=":J2_6" to="-E0" fromLane="0" toLane="0" dir="r" state="M"/>
    <connection from=":J2_6" to="-E0" fromLane="1" toLane="1" dir="r" state="M"/>
    <connection from=":J2_8" to="-E1" fromLane="0" toLane="0" dir="s" state="M"/>
    <connection from=":J2_8" to="-E1" fromLane="1" toLane="1" dir="s" state="M"/>
    <connection from=":J2_8" to="-E1" fromLane="2" toLane="2" dir="s" state="M"/>
    <connection from=":J2_8" to="-E1" fromLane="3" toLane="3" dir="s" state="M"/>
    <connection from=":J2_12" to="-E2" fromLane="0" toLane="2" dir="l" state="M"/>
    <connection from=":J2_12" to="-E2" fromLane="1" toLane="3" dir="l" state="M"/>
    <connection from=":J2_14" to="-E3" fromLane="0" toLane="0" dir="r" state="M"/>
    <connection from=":J2_15" to="-E0" fromLane="0" toLane="0" dir="s" state="M"/>
    <connection from=":J2_15" to="-E0" fromLane="1" toLane="1" dir="s" state="M"/>
    <connection from=":J2_15" to="-E0" fromLane="2" toLane="2" dir="s" state="M"/>
    <connection from=":J2_15" to="-E0" fromLane="3" toLane="3" dir="s" state="M"/>
    <connection from=":J2_19" to="-E1" fromLane="0" toLane="3" via=":J2_29_0" dir="l" state="m"/>
    <connection from=":J2_29" to="-E1" fromLane="0" toLane="3" dir="l" state="M"/>
    <connection from=":J2_20" to="-E2" fromLane="0" toLane="0" dir="r" state="M"/>
    <connection from=":J2_20" to="-E2" fromLane="1" toLane="1" dir="r" state="M"/>
    <connection from=":J2_22" to="-E3" fromLane="0" toLane="0" dir="s" state="M"/>
    <connection from=":J2_22" to="-E3" fromLane="1" toLane="1" dir="s" state="M"/>
    <connection from=":J2_22" to="-E3" fromLane="2" toLane="2" dir="s" state="M"/>
    <connection from=":J2_22" to="-E3" fromLane="3" toLane="3" dir="s" state="M"/>
    <connection from=":J2_26" to="-E0" fromLane="0" toLane="2" dir="l" state="M"/>
    <connection from=":J2_26" to="-E0" fromLane="1" toLane="3" dir="l" state="M"/>

</net>
