<?xml version="1.0" encoding="UTF-8"?>

<!-- generated on 2023-01-13 15:38:56 by Eclipse SUMO netedit Version 1.12.0
<configuration xmlns:xsi="http://www.w3.org/2001/XMLSchema-instance" xsi:noNamespaceSchemaLocation="http://sumo.dlr.de/xsd/netconvertConfiguration.xsd">

    <input>
        <sumo-net-file value="/home/lucas/Projets/sumo_structure/sumo_files/net_3.net.xml"/>
    </input>

    <output>
        <output-file value="/home/lucas/Projets/sumo_structure/sumo_files/net_3.net.xml"/>
    </output>

    <processing>
        <geometry.min-radius.fix.railways value="false"/>
        <geometry.max-grade.fix value="false"/>
        <offset.disable-normalization value="true"/>
        <lefthand value="false"/>
    </processing>

    <junctions>
        <no-turnarounds value="true"/>
        <junctions.corner-detail value="5"/>
        <junctions.limit-turn-speed value="5.5"/>
        <rectangular-lane-cut value="false"/>
    </junctions>

    <pedestrian>
        <walkingareas value="false"/>
    </pedestrian>

    <report>
        <aggregate-warnings value="5"/>
    </report>

</configuration>
-->

<net version="1.9" junctionCornerDetail="5" limitTurnSpeed="5.50" xmlns:xsi="http://www.w3.org/2001/XMLSchema-instance" xsi:noNamespaceSchemaLocation="http://sumo.dlr.de/xsd/net_file.xsd">

    <location netOffset="0.00,0.00" convBoundary="-34.11,7.82,156.00,80.45" origBoundary="-10000000000.00,-10000000000.00,10000000000.00,10000000000.00" projParameter="!"/>

    <edge id=":J0_0" function="internal">
        <lane id=":J0_0_0" index="0" allow="bicycle" speed="13.89" length="0.28" width="1.00" shape="6.88,50.41 6.61,50.41"/>
        <lane id=":J0_0_1" index="1" speed="13.89" length="0.28" shape="6.88,48.31 6.60,48.31"/>
    </edge>
    <edge id=":J0_2" function="internal">
        <lane id=":J0_2_0" index="0" allow="bicycle" speed="13.89" length="0.32" width="1.00" shape="6.58,43.01 6.90,43.01"/>
        <lane id=":J0_2_1" index="1" speed="13.89" length="0.32" shape="6.58,45.11 6.89,45.11"/>
    </edge>
    <edge id=":J1_0" function="internal">
        <lane id=":J1_0_0" index="0" allow="bicycle" speed="5.20" length="5.97" width="1.00" shape="61.01,50.60 59.43,50.83 58.28,51.52 57.56,52.69 57.28,54.32"/>
    </edge>
    <edge id=":J1_1" function="internal">
        <lane id=":J1_1_0" index="0" allow="bicycle" speed="13.89" length="14.52" width="1.00" shape="61.01,50.60 46.49,50.54"/>
    </edge>
    <edge id=":J1_2" function="internal">
        <lane id=":J1_2_0" index="0" allow="bicycle" speed="8.45" length="8.53" width="1.00" shape="61.01,50.60 57.15,49.60 53.66,47.04 53.53,46.87"/>
    </edge>
    <edge id=":J1_3" function="internal">
        <lane id=":J1_3_0" index="0" speed="6.65" length="1.47" shape="61.02,48.50 59.57,48.71"/>
    </edge>
    <edge id=":J1_4" function="internal">
        <lane id=":J1_4_0" index="0" speed="13.89" length="14.52" shape="61.02,48.50 46.50,48.44"/>
    </edge>
    <edge id=":J1_5" function="internal">
        <lane id=":J1_5_0" index="0" speed="7.81" length="4.05" shape="61.02,48.50 57.90,47.69 57.23,47.20"/>
    </edge>
    <edge id=":J1_24" function="internal">
        <lane id=":J1_24_0" index="0" allow="bicycle" speed="8.45" length="8.11" width="1.00" shape="53.53,46.87 51.13,43.52 50.17,39.65"/>
    </edge>
    <edge id=":J1_25" function="internal">
        <lane id=":J1_25_0" index="0" speed="6.65" length="7.82" shape="59.57,48.71 58.54,48.85 56.74,49.92 55.62,51.72 55.18,54.25"/>
    </edge>
    <edge id=":J1_26" function="internal">
        <lane id=":J1_26_0" index="0" speed="7.81" length="9.38" shape="57.23,47.20 55.09,45.63 53.05,42.79 52.27,39.66"/>
    </edge>
    <edge id=":J1_6" function="internal">
        <lane id=":J1_6_0" index="0" allow="bicycle" speed="5.01" length="5.65" width="1.00" shape="57.57,39.68 57.78,41.22 58.44,42.31 59.53,42.98 61.06,43.20"/>
    </edge>
    <edge id=":J1_7" function="internal">
        <lane id=":J1_7_0" index="0" allow="bicycle" speed="13.89" length="14.64" width="1.00" shape="57.57,39.68 57.28,54.32"/>
    </edge>
    <edge id=":J1_8" function="internal">
        <lane id=":J1_8_0" index="0" allow="bicycle" speed="8.70" length="9.29" width="1.00" shape="57.57,39.68 56.86,44.44 54.78,47.84 54.35,48.09"/>
    </edge>
    <edge id=":J1_9" function="internal">
        <lane id=":J1_9_0" index="0" speed="6.51" length="1.35" shape="55.47,39.67 55.66,41.01"/>
    </edge>
    <edge id=":J1_10" function="internal">
        <lane id=":J1_10_0" index="0" speed="13.89" length="14.58" shape="55.47,39.67 55.18,54.25"/>
    </edge>
    <edge id=":J1_11" function="internal">
        <lane id=":J1_11_0" index="0" speed="8.03" length="4.16" shape="55.47,39.67 54.90,43.52 54.75,43.75"/>
    </edge>
    <edge id=":J1_27" function="internal">
        <lane id=":J1_27_0" index="0" allow="bicycle" speed="8.70" length="8.39" width="1.00" shape="54.35,48.09 51.32,49.87 46.49,50.54"/>
    </edge>
    <edge id=":J1_28" function="internal">
        <lane id=":J1_28_0" index="0" speed="6.51" length="7.68" shape="55.66,41.01 55.81,42.12 56.85,43.88 58.60,44.94 61.04,45.30"/>
    </edge>
    <edge id=":J1_29" function="internal">
        <lane id=":J1_29_0" index="0" speed="8.03" length="10.14" shape="54.75,43.75 53.21,46.26 50.41,47.90 46.50,48.44"/>
    </edge>
    <edge id=":J1_12" function="internal">
        <lane id=":J1_12_0" index="0" allow="bicycle" speed="5.06" length="5.76" width="1.00" shape="46.52,43.14 48.11,42.92 49.25,42.27 49.94,41.18 50.17,39.65"/>
    </edge>
    <edge id=":J1_13" function="internal">
        <lane id=":J1_13_0" index="0" allow="bicycle" speed="13.89" length="14.54" width="1.00" shape="46.52,43.14 61.06,43.20"/>
    </edge>
    <edge id=":J1_14" function="internal">
        <lane id=":J1_14_0" index="0" allow="bicycle" speed="8.39" length="8.40" width="1.00" shape="46.52,43.14 50.41,44.16 53.91,46.80"/>
    </edge>
    <edge id=":J1_15" function="internal">
        <lane id=":J1_15_0" index="0" speed="6.55" length="1.50" shape="46.51,45.24 47.99,45.03"/>
    </edge>
    <edge id=":J1_16" function="internal">
        <lane id=":J1_16_0" index="0" speed="13.89" length="14.53" shape="46.51,45.24 61.04,45.30"/>
    </edge>
    <edge id=":J1_17" function="internal">
        <lane id=":J1_17_0" index="0" speed="7.74" length="4.11" shape="46.51,45.24 49.64,46.06 50.34,46.59"/>
    </edge>
    <edge id=":J1_30" function="internal">
        <lane id=":J1_30_0" index="0" allow="bicycle" speed="8.39" length="8.40" width="1.00" shape="53.91,46.80 56.40,50.39 57.28,54.32"/>
    </edge>
    <edge id=":J1_31" function="internal">
        <lane id=":J1_31_0" index="0" speed="6.55" length="7.65" shape="47.99,45.03 49.02,44.89 50.82,43.85 51.90,42.11 52.27,39.66"/>
    </edge>
    <edge id=":J1_32" function="internal">
        <lane id=":J1_32_0" index="0" speed="7.74" length="9.43" shape="50.34,46.59 52.46,48.18 54.48,51.08 55.18,54.25"/>
    </edge>
    <edge id=":J1_18" function="internal">
        <lane id=":J1_18_0" index="0" allow="bicycle" speed="4.94" length="5.62" width="1.00" shape="49.89,54.06 49.72,52.52 49.10,51.42 48.02,50.76 46.49,50.54"/>
    </edge>
    <edge id=":J1_19" function="internal">
        <lane id=":J1_19_0" index="0" allow="bicycle" speed="13.89" length="14.42" width="1.00" shape="49.89,54.06 50.17,39.65"/>
    </edge>
    <edge id=":J1_20" function="internal">
        <lane id=":J1_20_0" index="0" allow="bicycle" speed="8.79" length="9.15" width="1.00" shape="49.89,54.06 50.73,49.29 52.87,45.89 53.12,45.74"/>
    </edge>
    <edge id=":J1_21" function="internal">
        <lane id=":J1_21_0" index="0" speed="6.46" length="1.63" shape="51.98,54.14 51.81,52.52"/>
    </edge>
    <edge id=":J1_22" function="internal">
        <lane id=":J1_22_0" index="0" speed="13.89" length="14.48" shape="51.98,54.14 52.27,39.66"/>
    </edge>
    <edge id=":J1_23" function="internal">
        <lane id=":J1_23_0" index="0" speed="8.12" length="3.94" shape="51.98,54.14 52.67,50.25"/>
    </edge>
    <edge id=":J1_33" function="internal">
        <lane id=":J1_33_0" index="0" allow="bicycle" speed="8.79" length="8.50" width="1.00" shape="53.12,45.74 56.31,43.86 61.06,43.20"/>
    </edge>
    <edge id=":J1_34" function="internal">
        <lane id=":J1_34_0" index="0" speed="6.46" length="7.46" shape="51.81,52.52 51.72,51.65 50.71,49.87 48.97,48.80 46.50,48.44"/>
    </edge>
    <edge id=":J1_35" function="internal">
        <lane id=":J1_35_0" index="0" speed="8.12" length="10.39" shape="52.67,50.25 54.40,47.49 57.20,45.84 61.04,45.30"/>
    </edge>
    <edge id=":J2_0" function="internal">
        <lane id=":J2_0_0" index="0" allow="bicycle" speed="5.11" length="5.84" width="1.00" shape="100.28,50.92 98.68,51.12 97.53,51.77 96.82,52.89 96.56,54.46"/>
    </edge>
    <edge id=":J2_1" function="internal">
        <lane id=":J2_1_0" index="0" allow="bicycle" speed="13.89" length="14.54" width="1.00" shape="100.28,50.92 85.74,50.76"/>
    </edge>
    <edge id=":J2_2" function="internal">
        <lane id=":J2_2_0" index="0" allow="bicycle" speed="8.40" length="8.39" width="1.00" shape="100.28,50.92 96.41,49.85 92.94,47.19"/>
    </edge>
    <edge id=":J2_3" function="internal">
        <lane id=":J2_3_0" index="0" speed="6.58" length="1.54" shape="100.31,48.82 98.79,49.01"/>
    </edge>
    <edge id=":J2_4" function="internal">
        <lane id=":J2_4_0" index="0" speed="13.89" length="14.56" shape="100.31,48.82 85.75,48.66"/>
    </edge>
    <edge id=":J2_5" function="internal">
        <lane id=":J2_5_0" index="0" speed="7.75" length="4.06" shape="100.31,48.82 97.19,47.95 96.54,47.45"/>
    </edge>
    <edge id=":J2_24" function="internal">
        <lane id=":J2_24_0" index="0" allow="bicycle" speed="8.40" length="8.39" width="1.00" shape="92.94,47.19 90.48,43.57 89.63,39.65"/>
    </edge>
    <edge id=":J2_25" function="internal">
        <lane id=":J2_25_0" index="0" speed="6.58" length="7.68" shape="98.79,49.01 97.80,49.13 95.99,50.17 94.88,51.93 94.46,54.41"/>
    </edge>
    <edge id=":J2_26" function="internal">
        <lane id=":J2_26_0" index="0" speed="7.75" length="9.46" shape="96.54,47.45 94.40,45.81 92.42,42.90 91.73,39.73"/>
    </edge>
    <edge id=":J2_6" function="internal">
        <lane id=":J2_6_0" index="0" allow="bicycle" speed="4.96" length="5.63" width="1.00" shape="97.03,39.95 97.18,41.49 97.80,42.60 98.87,43.27 100.40,43.52"/>
    </edge>
    <edge id=":J2_7" function="internal">
        <lane id=":J2_7_0" index="0" allow="bicycle" speed="13.89" length="14.51" width="1.00" shape="97.03,39.95 96.56,54.46"/>
    </edge>
    <edge id=":J2_8" function="internal">
        <lane id=":J2_8_0" index="0" allow="bicycle" speed="8.82" length="17.69" width="1.00" shape="97.03,39.95 96.15,44.70 93.98,48.09 90.51,50.11 85.74,50.76"/>
    </edge>
    <edge id=":J2_9" function="internal">
        <lane id=":J2_9_0" index="0" speed="6.47" length="9.07" shape="94.93,39.86 95.18,42.35 96.17,44.13 97.90,45.22 100.36,45.62"/>
    </edge>
    <edge id=":J2_10" function="internal">
        <lane id=":J2_10_0" index="0" speed="13.89" length="14.55" shape="94.93,39.86 94.46,54.41"/>
    </edge>
    <edge id=":J2_11" function="internal">
        <lane id=":J2_11_0" index="0" speed="8.16" length="14.39" shape="94.93,39.86 94.22,43.73 92.45,46.48 89.63,48.13 85.75,48.66"/>
    </edge>
    <edge id=":J2_12" function="internal">
        <lane id=":J2_12_0" index="0" allow="bicycle" speed="5.25" length="6.05" width="1.00" shape="85.78,43.36 87.41,43.13 88.59,42.44 89.34,41.28 89.63,39.65"/>
    </edge>
    <edge id=":J2_13" function="internal">
        <lane id=":J2_13_0" index="0" allow="bicycle" speed="13.89" length="14.62" width="1.00" shape="85.78,43.36 100.40,43.52"/>
    </edge>
    <edge id=":J2_14" function="internal">
        <lane id=":J2_14_0" index="0" allow="bicycle" speed="8.41" length="8.56" width="1.00" shape="85.78,43.36 89.66,44.38 93.15,46.98 93.26,47.14"/>
    </edge>
    <edge id=":J2_15" function="internal">
        <lane id=":J2_15_0" index="0" speed="6.69" length="1.43" shape="85.77,45.46 87.19,45.26"/>
    </edge>
    <edge id=":J2_16" function="internal">
        <lane id=":J2_16_0" index="0" speed="13.89" length="14.60" shape="85.77,45.46 100.36,45.62"/>
    </edge>
    <edge id=":J2_17" function="internal">
        <lane id=":J2_17_0" index="0" speed="7.77" length="4.12" shape="85.77,45.46 88.89,46.28 89.61,46.81"/>
    </edge>
    <edge id=":J2_27" function="internal">
        <lane id=":J2_27_0" index="0" allow="bicycle" speed="8.41" length="8.18" width="1.00" shape="93.26,47.14 95.65,50.55 96.56,54.46"/>
    </edge>
    <edge id=":J2_28" function="internal">
        <lane id=":J2_28_0" index="0" speed="6.69" length="7.92" shape="87.19,45.26 88.29,45.11 90.12,44.04 91.27,42.25 91.73,39.73"/>
    </edge>
    <edge id=":J2_29" function="internal">
        <lane id=":J2_29_0" index="0" speed="7.77" length="9.37" shape="89.61,46.81 91.71,48.38 93.73,51.26 94.46,54.41"/>
    </edge>
    <edge id=":J2_18" function="internal">
        <lane id=":J2_18_0" index="0" allow="bicycle" speed="4.97" length="5.63" width="1.00" shape="89.16,54.28 88.98,52.75 88.35,51.65 87.27,50.98 85.74,50.76"/>
    </edge>
    <edge id=":J2_19" function="internal">
        <lane id=":J2_19_0" index="0" allow="bicycle" speed="13.89" length="14.65" width="1.00" shape="89.16,54.28 89.63,39.65"/>
    </edge>
    <edge id=":J2_20" function="internal">
        <lane id=":J2_20_0" index="0" allow="bicycle" speed="8.73" length="17.72" width="1.00" shape="89.16,54.28 89.96,49.51 92.10,46.12 95.58,44.12 100.40,43.52"/>
    </edge>
    <edge id=":J2_21" function="internal">
        <lane id=":J2_21_0" index="0" speed="6.48" length="9.06" shape="91.26,54.33 90.97,51.86 89.95,50.09 88.21,49.02 85.75,48.66"/>
    </edge>
    <edge id=":J2_22" function="internal">
        <lane id=":J2_22_0" index="0" speed="13.89" length="14.61" shape="91.26,54.33 91.73,39.73"/>
    </edge>
    <edge id=":J2_23" function="internal">
        <lane id=":J2_23_0" index="0" speed="8.06" length="14.35" shape="91.26,54.33 91.91,50.47 93.64,47.72 96.46,46.11 100.36,45.62"/>
    </edge>
    <edge id=":J3_0" function="internal">
        <lane id=":J3_0_0" index="0" allow="bicycle" speed="5.04" length="5.70" width="1.00" shape="134.03,51.53 132.49,51.71 131.38,52.35 130.69,53.45 130.43,55.00"/>
    </edge>
    <edge id=":J3_1" function="internal">
        <lane id=":J3_1_0" index="0" allow="bicycle" speed="13.89" length="14.41" width="1.00" shape="134.03,51.53 119.63,51.22"/>
    </edge>
    <edge id=":J3_2" function="internal">
        <lane id=":J3_2_0" index="0" allow="bicycle" speed="8.70" length="4.80" width="1.00" shape="134.03,51.53 129.29,50.72"/>
    </edge>
    <edge id=":J3_3" function="internal">
        <lane id=":J3_3_0" index="0" speed="6.53" length="1.51" shape="134.08,49.43 132.58,49.60"/>
    </edge>
    <edge id=":J3_4" function="internal">
        <lane id=":J3_4_0" index="0" speed="13.89" length="14.43" shape="134.08,49.43 119.66,49.12"/>
    </edge>
    <edge id=":J3_5" function="internal">
        <lane id=":J3_5_0" index="0" speed="8.03" length="4.03" shape="134.08,49.43 130.26,48.78 130.14,48.70"/>
    </edge>
    <edge id=":J3_24" function="internal">
        <lane id=":J3_24_0" index="0" allow="bicycle" speed="8.70" length="12.75" width="1.00" shape="129.29,50.72 125.94,48.60 123.96,45.15 123.36,40.38"/>
    </edge>
    <edge id=":J3_25" function="internal">
        <lane id=":J3_25_0" index="0" speed="6.53" length="7.57" shape="132.58,49.60 131.63,49.72 129.85,50.73 128.75,52.47 128.33,54.94"/>
    </edge>
    <edge id=":J3_26" function="internal">
        <lane id=":J3_26_0" index="0" speed="8.03" length="10.17" shape="130.14,48.70 127.54,47.06 125.94,44.27 125.46,40.42"/>
    </edge>
    <edge id=":J3_6" function="internal">
        <lane id=":J3_6_0" index="0" allow="bicycle" speed="5.05" length="5.71" width="1.00" shape="130.76,40.50 130.95,42.06 131.60,43.18 132.68,43.87 134.22,44.13"/>
    </edge>
    <edge id=":J3_7" function="internal">
        <lane id=":J3_7_0" index="0" allow="bicycle" speed="13.89" length="14.50" width="1.00" shape="130.76,40.50 130.43,55.00"/>
    </edge>
    <edge id=":J3_8" function="internal">
        <lane id=":J3_8_0" index="0" allow="bicycle" speed="8.69" length="17.62" width="1.00" shape="130.76,40.50 130.00,45.26 127.89,48.63 124.43,50.62 119.63,51.22"/>
    </edge>
    <edge id=":J3_9" function="internal">
        <lane id=":J3_9_0" index="0" speed="6.54" length="9.07" shape="128.66,40.47 128.97,42.93 129.99,44.72 131.72,45.81 134.17,46.23"/>
    </edge>
    <edge id=":J3_10" function="internal">
        <lane id=":J3_10_0" index="0" speed="13.89" length="14.47" shape="128.66,40.47 128.33,54.94"/>
    </edge>
    <edge id=":J3_11" function="internal">
        <lane id=":J3_11_0" index="0" speed="8.01" length="14.24" shape="128.66,40.47 128.04,44.31 126.34,47.03 123.54,48.64 119.66,49.12"/>
    </edge>
    <edge id=":J3_12" function="internal">
        <lane id=":J3_12_0" index="0" allow="bicycle" speed="5.03" length="5.69" width="1.00" shape="119.74,43.82 121.30,43.63 122.43,42.99 123.11,41.91 123.36,40.38"/>
    </edge>
    <edge id=":J3_13" function="internal">
        <lane id=":J3_13_0" index="0" allow="bicycle" speed="13.89" length="14.48" width="1.00" shape="119.74,43.82 134.22,44.13"/>
    </edge>
    <edge id=":J3_14" function="internal">
        <lane id=":J3_14_0" index="0" allow="bicycle" speed="8.66" length="4.85" width="1.00" shape="119.74,43.82 124.54,44.59"/>
    </edge>
    <edge id=":J3_15" function="internal">
        <lane id=":J3_15_0" index="0" speed="6.52" length="1.44" shape="119.71,45.92 121.14,45.75"/>
    </edge>
    <edge id=":J3_16" function="internal">
        <lane id=":J3_16_0" index="0" speed="13.89" length="14.46" shape="119.71,45.92 134.17,46.23"/>
    </edge>
    <edge id=":J3_17" function="internal">
        <lane id=":J3_17_0" index="0" speed="7.98" length="4.12" shape="119.71,45.92 123.58,46.54 123.75,46.65"/>
    </edge>
    <edge id=":J3_27" function="internal">
        <lane id=":J3_27_0" index="0" allow="bicycle" speed="8.66" length="12.83" width="1.00" shape="124.54,44.59 127.92,46.71 129.88,50.18 130.43,55.00"/>
    </edge>
    <edge id=":J3_28" function="internal">
        <lane id=":J3_28_0" index="0" speed="6.52" length="7.63" shape="121.14,45.75 122.19,45.61 123.98,44.59 125.06,42.86 125.46,40.42"/>
    </edge>
    <edge id=":J3_29" function="internal">
        <lane id=":J3_29_0" index="0" speed="7.98" length="10.14" shape="123.75,46.65 126.30,48.25 127.89,51.05 128.33,54.94"/>
    </edge>
    <edge id=":J3_18" function="internal">
        <lane id=":J3_18_0" index="0" allow="bicycle" speed="4.98" length="5.63" width="1.00" shape="123.03,54.78 122.86,53.25 122.23,52.14 121.15,51.47 119.63,51.22"/>
    </edge>
    <edge id=":J3_19" function="internal">
        <lane id=":J3_19_0" index="0" allow="bicycle" speed="13.89" length="14.41" width="1.00" shape="123.03,54.78 123.36,40.38"/>
    </edge>
    <edge id=":J3_20" function="internal">
        <lane id=":J3_20_0" index="0" allow="bicycle" speed="8.69" length="17.61" width="1.00" shape="123.03,54.78 123.85,50.02 125.99,46.65 129.45,44.69 134.22,44.13"/>
    </edge>
    <edge id=":J3_21" function="internal">
        <lane id=":J3_21_0" index="0" speed="6.49" length="9.05" shape="125.13,54.85 124.85,52.38 123.84,50.60 122.11,49.52 119.66,49.12"/>
    </edge>
    <edge id=":J3_22" function="internal">
        <lane id=":J3_22_0" index="0" speed="13.89" length="14.43" shape="125.13,54.85 125.46,40.42"/>
    </edge>
    <edge id=":J3_23" function="internal">
        <lane id=":J3_23_0" index="0" speed="8.02" length="14.23" shape="125.13,54.85 125.79,50.99 127.52,48.27 130.31,46.68 134.17,46.23"/>
    </edge>

    <edge id="-E0" from="J0" to="J11" priority="-1">
        <lane id="-E0_0" index="0" allow="bicycle" speed="13.89" length="40.70" width="1.00" shape="6.61,50.41 -34.09,50.59"/>
        <lane id="-E0_1" index="1" speed="13.89" length="40.70" shape="6.60,48.31 -34.10,48.49"/>
    </edge>
    <edge id="-E1" from="J2" to="J1" priority="-1">
        <lane id="-E1_0" index="0" allow="bicycle" speed="13.89" length="24.73" width="1.00" shape="85.74,50.76 61.01,50.60"/>
        <lane id="-E1_1" index="1" speed="13.89" length="24.73" shape="85.75,48.66 61.02,48.50"/>
    </edge>
    <edge id="-E2" from="J3" to="J2" priority="-1">
        <lane id="-E2_0" index="0" allow="bicycle" speed="13.89" length="19.35" width="1.00" shape="119.63,51.22 100.28,50.92"/>
        <lane id="-E2_1" index="1" speed="13.89" length="19.35" shape="119.66,49.12 100.31,48.82"/>
    </edge>
    <edge id="-E3" from="J4" to="J3" priority="-1">
        <lane id="-E3_0" index="0" allow="bicycle" speed="13.89" length="21.88" width="1.00" shape="155.90,52.10 134.03,51.53"/>
        <lane id="-E3_1" index="1" speed="13.89" length="21.88" shape="155.96,50.00 134.08,49.43"/>
    </edge>
    <edge id="-E4" from="J5" to="J1" priority="-1">
        <lane id="-E4_0" index="0" allow="bicycle" speed="13.89" length="22.12" width="1.00" shape="49.11,76.17 49.89,54.06"/>
        <lane id="-E4_1" index="1" speed="13.89" length="22.12" shape="51.21,76.24 51.98,54.14"/>
    </edge>
    <edge id="-E5" from="J6" to="J1" priority="-1">
        <lane id="-E5_0" index="0" allow="bicycle" speed="13.89" length="31.85" width="1.00" shape="57.72,7.84 57.57,39.68"/>
        <lane id="-E5_1" index="1" speed="13.89" length="31.85" shape="55.62,7.83 55.47,39.67"/>
    </edge>
    <edge id="-E6" from="J7" to="J2" priority="-1">
        <lane id="-E6_0" index="0" allow="bicycle" speed="13.89" length="23.91" width="1.00" shape="88.61,78.18 89.16,54.28"/>
        <lane id="-E6_1" index="1" speed="13.89" length="23.91" shape="90.71,78.23 91.26,54.33"/>
    </edge>
    <edge id="-E7" from="J8" to="J2" priority="-1">
        <lane id="-E7_0" index="0" allow="bicycle" speed="13.89" length="30.74" width="1.00" shape="98.30,9.23 97.03,39.95"/>
        <lane id="-E7_1" index="1" speed="13.89" length="30.74" shape="96.20,9.15 94.93,39.86"/>
    </edge>
    <edge id="-E8" from="J9" to="J3" priority="-1">
        <lane id="-E8_0" index="0" allow="bicycle" speed="13.89" length="25.57" width="1.00" shape="122.29,80.34 123.03,54.78"/>
        <lane id="-E8_1" index="1" speed="13.89" length="25.57" shape="124.39,80.40 125.13,54.85"/>
    </edge>
    <edge id="-E9" from="J10" to="J3" priority="-1">
        <lane id="-E9_0" index="0" allow="bicycle" speed="13.89" length="30.45" width="1.00" shape="131.26,10.06 130.76,40.50"/>
        <lane id="-E9_1" index="1" speed="13.89" length="30.45" shape="129.16,10.03 128.66,40.47"/>
    </edge>
    <edge id="-E_start" from="J1" to="J0" priority="-1" length="38.50">
        <lane id="-E_start_0" index="0" allow="bicycle" speed="13.89" length="38.50" width="1.00" shape="46.49,50.54 6.88,50.41"/>
        <lane id="-E_start_1" index="1" speed="13.89" length="38.50" shape="46.50,48.44 6.88,48.31"/>
    </edge>
    <edge id="E0" from="J11" to="J0" priority="-1">
        <lane id="E0_0" index="0" allow="bicycle" speed="13.89" length="40.70" width="1.00" shape="-34.13,43.19 6.58,43.01"/>
        <lane id="E0_1" index="1" speed="13.89" length="40.70" shape="-34.12,45.29 6.58,45.11"/>
    </edge>
    <edge id="E1" from="J1" to="J2" priority="-1">
        <lane id="E1_0" index="0" allow="bicycle" speed="13.89" length="24.73" width="1.00" shape="61.06,43.20 85.78,43.36"/>
        <lane id="E1_1" index="1" speed="13.89" length="24.73" shape="61.04,45.30 85.77,45.46"/>
    </edge>
    <edge id="E2" from="J2" to="J3" priority="-1">
        <lane id="E2_0" index="0" allow="bicycle" speed="13.89" length="19.35" width="1.00" shape="100.40,43.52 119.74,43.82"/>
        <lane id="E2_1" index="1" speed="13.89" length="19.35" shape="100.36,45.62 119.71,45.92"/>
    </edge>
    <edge id="E3" from="J3" to="J4" priority="-1">
        <lane id="E3_0" index="0" allow="bicycle" speed="13.89" length="21.88" width="1.00" shape="134.22,44.13 156.10,44.70"/>
        <lane id="E3_1" index="1" speed="13.89" length="21.88" shape="134.17,46.23 156.04,46.80"/>
    </edge>
    <edge id="E4" from="J1" to="J5" priority="-1" shape="53.84,46.86 53.22,64.59 52.81,76.30">
        <lane id="E4_0" index="0" allow="bicycle" speed="13.89" length="22.12" width="1.00" shape="57.28,54.32 56.92,64.72 56.51,76.43"/>
        <lane id="E4_1" index="1" speed="13.89" length="22.12" shape="55.18,54.25 54.82,64.65 54.41,76.36"/>
    </edge>
    <edge id="E5" from="J1" to="J6" priority="-1">
        <lane id="E5_0" index="0" allow="bicycle" speed="13.89" length="31.85" width="1.00" shape="50.17,39.65 50.32,7.80"/>
        <lane id="E5_1" index="1" speed="13.89" length="31.85" shape="52.27,39.66 52.42,7.81"/>
    </edge>
    <edge id="E6" from="J2" to="J7" priority="-1">
        <lane id="E6_0" index="0" allow="bicycle" speed="13.89" length="23.91" width="1.00" shape="96.56,54.46 96.01,78.36"/>
        <lane id="E6_1" index="1" speed="13.89" length="23.91" shape="94.46,54.41 93.91,78.31"/>
    </edge>
    <edge id="E7" from="J2" to="J8" priority="-1">
        <lane id="E7_0" index="0" allow="bicycle" speed="13.89" length="30.74" width="1.00" shape="89.63,39.65 90.90,8.93"/>
        <lane id="E7_1" index="1" speed="13.89" length="30.74" shape="91.73,39.73 93.00,9.01"/>
    </edge>
    <edge id="E8" from="J3" to="J9" priority="-1">
        <lane id="E8_0" index="0" allow="bicycle" speed="13.89" length="25.57" width="1.00" shape="130.43,55.00 129.69,80.56"/>
        <lane id="E8_1" index="1" speed="13.89" length="25.57" shape="128.33,54.94 127.59,80.50"/>
    </edge>
    <edge id="E9" from="J3" to="J10" priority="-1">
        <lane id="E9_0" index="0" allow="bicycle" speed="13.89" length="30.45" width="1.00" shape="123.36,40.38 123.86,9.94"/>
        <lane id="E9_1" index="1" speed="13.89" length="30.45" shape="125.46,40.42 125.96,9.97"/>
    </edge>
    <edge id="E_start" from="J0" to="J1" priority="-1">
        <lane id="E_start_0" index="0" allow="bicycle" speed="13.89" length="39.62" width="1.00" shape="6.90,43.01 46.52,43.14"/>
        <lane id="E_start_1" index="1" speed="13.89" length="39.62" shape="6.89,45.11 46.51,45.24"/>
    </edge>

    <tlLogic id="J1" type="static" programID="0" offset="0">
        <phase duration="42" state="GGggGgrrrrrrGGggGgrrrrrr"/>
        <phase duration="3"  state="yyyyyyrrrrrryyyyyyrrrrrr"/>
        <phase duration="42" state="rrrrrrGGggGgrrrrrrGGggGg"/>
        <phase duration="3"  state="rrrrrryyyyyyrrrrrryyyyyy"/>
    </tlLogic>

    <junction id="J0" type="priority" x="6.74" y="46.71" incLanes="-E_start_0 -E_start_1 E0_0 E0_1" intLanes=":J0_0_0 :J0_0_1 :J0_2_0 :J0_2_1" shape="6.88,50.91 6.90,42.51 6.57,42.51 6.61,50.91">
        <request index="0" response="0000" foes="0000" cont="0"/>
        <request index="1" response="0000" foes="0000" cont="0"/>
        <request index="2" response="0000" foes="0000" cont="0"/>
        <request index="3" response="0000" foes="0000" cont="0"/>
    </junction>
    <junction id="J1" type="traffic_light" x="53.84" y="46.86" incLanes="-E1_0 -E1_1 -E5_0 -E5_1 E_start_0 E_start_1 -E4_0 -E4_1" intLanes=":J1_0_0 :J1_1_0 :J1_24_0 :J1_25_0 :J1_4_0 :J1_26_0 :J1_6_0 :J1_7_0 :J1_27_0 :J1_28_0 :J1_10_0 :J1_29_0 :J1_12_0 :J1_13_0 :J1_30_0 :J1_31_0 :J1_16_0 :J1_32_0 :J1_18_0 :J1_19_0 :J1_33_0 :J1_34_0 :J1_22_0 :J1_35_0" shape="61.01,51.10 61.06,42.70 59.39,42.36 58.81,41.94 58.40,41.35 58.15,40.60 58.07,39.69 49.67,39.65 49.32,41.31 48.88,41.89 48.26,42.31 47.48,42.56 46.52,42.64 46.49,51.04 48.15,51.38 48.71,51.79 49.11,52.38 49.33,53.13 49.39,54.04 57.78,54.34 58.19,52.53 58.64,51.90 59.27,51.45 60.05,51.19">
        <request index="0"  response="000000000000000000000000" foes="000000000100000010000000" cont="0"/>
        <request index="1"  response="101100000000000100000000" foes="111111100100010110001000" cont="0"/>
        <request index="2"  response="100100111111100100010000" foes="110110111111110110011000" cont="1"/>
        <request index="3"  response="000000000000000000000110" foes="000000100100010010000110" cont="1"/>
        <request index="4"  response="101100000000100100000000" foes="111110100100110110000100" cont="0"/>
        <request index="5"  response="100100011010100100000000" foes="110100011010110110000000" cont="1"/>
        <request index="6"  response="000000000010000000000000" foes="000100000010000000000000" cont="0"/>
        <request index="7"  response="000000010110000000111111" foes="100100010110001000111111" cont="0"/>
        <request index="8"  response="011011110110010000110110" foes="111111110110011000110110" cont="1"/>
        <request index="9"  response="000000010010000110000000" foes="100100010010000110000000" cont="1"/>
        <request index="10" response="000000110110000000111110" foes="100100110110000100111110" cont="0"/>
        <request index="11" response="011010110110000000110100" foes="111110110110000000110100" cont="1"/>
        <request index="12" response="000000000000000000000000" foes="000010000000000000000100" cont="0"/>
        <request index="13" response="000100000000101100000000" foes="010110001000111111100100" cont="0"/>
        <request index="14" response="100100010000100100011011" foes="110110011000110110111111" cont="1"/>
        <request index="15" response="000000000110000000000000" foes="010010000110000000100100" cont="1"/>
        <request index="16" response="100100000000101100000000" foes="110110000100111110100100" cont="0"/>
        <request index="17" response="100100000000100100011010" foes="110110000000110100011010" cont="1"/>
        <request index="18" response="000000000000000000000010" foes="000000000000000100000010" cont="0"/>
        <request index="19" response="000000111111000000010110" foes="001000111111100100010110" cont="0"/>