<?xml version="1.0" encoding="UTF-8"?>

<!-- generated on 2022-11-14 12:31:52 by Eclipse SUMO GUI Version 1.12.0
-->

<configuration xmlns:xsi="http://www.w3.org/2001/XMLSchema-instance" xsi:noNamespaceSchemaLocation="http://sumo.dlr.de/xsd/sumoConfiguration.xsd">

    <input>
        <net-file value="/home/lucas/Projets/sumo_structure/sumo_files/net.net.xml"/>
        <route-files value="osm.bicycle.trips.xml"/>
    </input>

</configuration>
